MODEL 1
REMARK VINA RESULT:     -11.5      0.000      0.000
REMARK  14 active torsions:
REMARK  status: ('A' for Active; 'I' for Inactive)
REMARK    1  A    between atoms: N1_1  and  C31_43 
REMARK    2  A    between atoms: C2_3  and  C3_4 
REMARK       I    between atoms: C3_4  and  N2_6 
REMARK    3  A    between atoms: N2_6  and  C4_8 
REMARK    4  A    between atoms: N3_12  and  C10_15 
REMARK    5  A    between atoms: C10_15  and  C11_16 
REMARK    6  A    between atoms: C11_16  and  O2_17 
REMARK    7  A    between atoms: C11_16  and  C12_19 
REMARK    8  A    between atoms: C12_19  and  C13_20 
REMARK    9  A    between atoms: C13_20  and  C21_28 
REMARK   10  A    between atoms: C13_20  and  C14_21 
REMARK   11  A    between atoms: C14_21  and  C15_22 
REMARK       I    between atoms: C21_28  and  N4_30 
REMARK   12  A    between atoms: N4_30  and  C22_32 
REMARK   13  A    between atoms: C23_33  and  O4_34 
REMARK   14  A    between atoms: C31_43  and  C32_44 
ROOT
HETATM    1  N1  MK1 B 902       9.142  23.960   3.170  1.00 28.25     0.096 N 
HETATM    2  C1  MK1 B 902       9.428  24.151   4.618  1.00 30.30     0.307 C 
HETATM    3  C2  MK1 B 902      10.595  24.998   5.086  1.00 27.27     0.200 C 
HETATM    4  N3  MK1 B 902      11.758  24.305   4.428  1.00 28.91    -0.395 N 
HETATM    5  C8  MK1 B 902      11.608  23.818   3.034  1.00 26.24     0.148 C 
HETATM    6  C9  MK1 B 902      10.243  23.312   2.611  1.00 27.47     0.292 C 
ENDROOT
BRANCH   1   7
HETATM    7  C31 MK1 B 902       7.842  23.380   2.813  1.00 36.25     0.312 C 
BRANCH   7   8
HETATM    8  C32 MK1 B 902       6.528  24.028   3.265  1.00 42.75    -0.013 A 
HETATM    9  C36 MK1 B 902       5.524  23.194   3.709  1.00 44.71     0.012 A 
HETATM   10  C35 MK1 B 902       4.320  23.775   4.102  1.00 49.34     0.020 A 
HETATM   11  C34 MK1 B 902       4.161  25.162   4.035  1.00 50.60     0.116 A 
HETATM   12  N5  MK1 B 902       5.122  26.073   3.599  1.00 51.38    -0.273 NA
HETATM   13  C33 MK1 B 902       6.302  25.411   3.223  1.00 47.41     0.125 A 
ENDBRANCH   7   8
ENDBRANCH   1   7
BRANCH   3  14
HETATM   14  C3  MK1 B 902      10.648  24.943   6.588  1.00 28.85     0.242 C 
HETATM   15  O1  MK1 B 902      10.822  23.875   7.162  1.00 29.59    -0.271 OA
HETATM   16  N2  MK1 B 902      10.487  26.080   7.235  1.00 22.29    -0.351 N 
HETATM   17  H2  MK1 B 902      10.282  26.885   6.642  1.00  0.00     0.163 HD
BRANCH  16  18
HETATM   18  C4  MK1 B 902      10.552  26.367   8.632  1.00 23.47     0.022 C 
HETATM   19  C7  MK1 B 902       9.623  25.568   9.438  1.00 22.75     0.037 C 
HETATM   20  C5  MK1 B 902      10.073  27.819   8.816  1.00 27.66     0.037 C 
HETATM   21  C6  MK1 B 902      11.820  26.205   9.167  1.00 21.71     0.037 C 
ENDBRANCH  16  18
ENDBRANCH   3  14
BRANCH   4  22
HETATM   22  C10 MK1 B 902      13.068  24.904   4.582  1.00 20.86     0.149 C 
BRANCH  22  23
HETATM   23  C11 MK1 B 902      14.130  23.952   5.136  1.00 21.68     0.136 C 
BRANCH  23  24
HETATM   24  O2  MK1 B 902      15.218  24.705   4.692  1.00 15.87    -0.394 OA
HETATM   25  H2  MK1 B 902      15.697  24.185   4.058  1.00  0.00     0.210 HD
ENDBRANCH  23  24
BRANCH  23  26
HETATM   26  C12 MK1 B 902      14.332  23.661   6.634  1.00 21.49     0.047 C 
BRANCH  26  27
HETATM   27  C13 MK1 B 902      15.481  22.758   7.107  1.00 26.89     0.084 C 
BRANCH  27  28
HETATM   28  C21 MK1 B 902      15.442  21.387   6.442  1.00 29.35     0.222 C 
HETATM   29  N4  MK1 B 902      16.608  20.946   5.978  1.00 31.19    -0.350 N 
HETATM   30  H4  MK1 B 902      17.381  21.603   5.867  1.00  0.00     0.163 HD
HETATM   31  O3  MK1 B 902      14.405  20.708   6.455  1.00 32.66    -0.273 OA
BRANCH  29  32
HETATM   32  C22 MK1 B 902      16.808  19.551   5.624  1.00 29.22     0.147 C 
HETATM   33  C30 MK1 B 902      16.573  19.123   4.151  1.00 31.86    -0.027 A 
HETATM   34  C29 MK1 B 902      15.669  19.491   3.206  1.00 27.70     0.010 A 
HETATM   35  C25 MK1 B 902      17.610  18.051   3.708  1.00 31.29    -0.047 A 
HETATM   36  C28 MK1 B 902      15.682  18.944   1.931  1.00 29.01     0.001 A 
HETATM   37  C27 MK1 B 902      16.631  17.988   1.539  1.00 28.00     0.001 A 
HETATM   38  C26 MK1 B 902      17.606  17.534   2.434  1.00 32.00     0.008 A 
HETATM   39  C24 MK1 B 902      18.442  17.912   4.959  1.00 32.05     0.073 C 
HETATM   40  C23 MK1 B 902      18.238  19.100   5.870  1.00 28.82     0.149 C 
BRANCH  40  41
HETATM   41  O4  MK1 B 902      19.140  20.171   5.630  1.00 28.32    -0.393 OA
HETATM   42  H4  MK1 B 902      19.214  20.718   6.404  1.00  0.00     0.210 HD
ENDBRANCH  40  41
ENDBRANCH  29  32
ENDBRANCH  27  28
BRANCH  27  43
HETATM   43  C14 MK1 B 902      15.484  22.571   8.634  1.00 28.67     0.052 C 
BRANCH  43  44
HETATM   44  C15 MK1 B 902      16.595  21.702   9.097  1.00 26.89    -0.057 A 
HETATM   45  C16 MK1 B 902      17.933  21.969   8.801  1.00 29.22     0.007 A 
HETATM   46  C17 MK1 B 902      18.936  21.109   9.223  1.00 29.22     0.001 A 
HETATM   47  C18 MK1 B 902      18.583  19.969   9.949  1.00 30.97     0.000 A 
HETATM   48  C19 MK1 B 902      17.243  19.702  10.255  1.00 29.25     0.001 A 
HETATM   49  C20 MK1 B 902      16.246  20.576   9.824  1.00 29.96     0.007 A 
ENDBRANCH  43  44
ENDBRANCH  27  43
ENDBRANCH  26  27
ENDBRANCH  23  26
ENDBRANCH  22  23
ENDBRANCH   4  22
TORSDOF 14
ENDMDL
MODEL 2
REMARK VINA RESULT:     -10.6      1.389      4.257
REMARK  14 active torsions:
REMARK  status: ('A' for Active; 'I' for Inactive)
REMARK    1  A    between atoms: N1_1  and  C31_43 
REMARK    2  A    between atoms: C2_3  and  C3_4 
REMARK       I    between atoms: C3_4  and  N2_6 
REMARK    3  A    between atoms: N2_6  and  C4_8 
REMARK    4  A    between atoms: N3_12  and  C10_15 
REMARK    5  A    between atoms: C10_15  and  C11_16 
REMARK    6  A    between atoms: C11_16  and  O2_17 
REMARK    7  A    between atoms: C11_16  and  C12_19 
REMARK    8  A    between atoms: C12_19  and  C13_20 
REMARK    9  A    between atoms: C13_20  and  C21_28 
REMARK   10  A    between atoms: C13_20  and  C14_21 
REMARK   11  A    between atoms: C14_21  and  C15_22 
REMARK       I    between atoms: C21_28  and  N4_30 
REMARK   12  A    between atoms: N4_30  and  C22_32 
REMARK   13  A    between atoms: C23_33  and  O4_34 
REMARK   14  A    between atoms: C31_43  and  C32_44 
ROOT
HETATM    1  N1  MK1 B 902       9.081  24.072   2.733  1.00 28.25     0.096 N 
HETATM    2  C1  MK1 B 902       9.190  24.308   4.198  1.00 30.30     0.307 C 
HETATM    3  C2  MK1 B 902      10.333  25.111   4.785  1.00 27.27     0.200 C 
HETATM    4  N3  MK1 B 902      11.530  24.333   4.308  1.00 28.91    -0.395 N 
HETATM    5  C8  MK1 B 902      11.532  23.798   2.924  1.00 26.24     0.148 C 
HETATM    6  C9  MK1 B 902      10.207  23.346   2.345  1.00 27.47     0.292 C 
ENDROOT
BRANCH   1   7
HETATM    7  C31 MK1 B 902       7.807  23.546   2.230  1.00 36.25     0.312 C 
BRANCH   7   8
HETATM    8  C32 MK1 B 902       6.464  24.078   2.744  1.00 42.75    -0.013 A 
HETATM    9  C36 MK1 B 902       5.752  23.282   3.616  1.00 44.71     0.012 A 
HETATM   10  C35 MK1 B 902       4.523  23.751   4.071  1.00 49.34     0.020 A 
HETATM   11  C34 MK1 B 902       4.047  24.993   3.639  1.00 50.60     0.116 A 
HETATM   12  N5  MK1 B 902       4.702  25.857   2.763  1.00 51.38    -0.273 NA
HETATM   13  C33 MK1 B 902       5.930  25.314   2.351  1.00 47.41     0.125 A 
ENDBRANCH   7   8
ENDBRANCH   1   7
BRANCH   3  14
HETATM   14  C3  MK1 B 902      10.191  25.114   6.283  1.00 28.85     0.242 C 
HETATM   15  O1  MK1 B 902      10.154  24.059   6.903  1.00 29.59    -0.271 OA
HETATM   16  N2  MK1 B 902      10.095  26.290   6.872  1.00 22.29    -0.351 N 
HETATM   17  H2  MK1 B 902      10.070  27.087   6.236  1.00  0.00     0.163 HD
BRANCH  16  18
HETATM   18  C4  MK1 B 902      10.020  26.626   8.258  1.00 23.47     0.022 C 
HETATM   19  C7  MK1 B 902       8.918  25.964   8.963  1.00 22.75     0.037 C 
HETATM   20  C5  MK1 B 902       9.686  28.127   8.339  1.00 27.66     0.037 C 
HETATM   21  C6  MK1 B 902      11.188  26.354   8.953  1.00 21.71     0.037 C 
ENDBRANCH  16  18
ENDBRANCH   3  14
BRANCH   4  22
HETATM   22  C10 MK1 B 902      12.841  24.869   4.611  1.00 20.86     0.149 C 
BRANCH  22  23
HETATM   23  C11 MK1 B 902      13.682  23.983   5.531  1.00 21.68     0.136 C 
BRANCH  23  24
HETATM   24  O2  MK1 B 902      13.717  24.895   6.588  1.00 15.87    -0.394 OA
HETATM   25  H2  MK1 B 902      14.165  24.482   7.317  1.00  0.00     0.210 HD
ENDBRANCH  23  24
BRANCH  23  26
HETATM   26  C12 MK1 B 902      13.214  22.626   6.089  1.00 21.49     0.047 C 
BRANCH  26  27
HETATM   27  C13 MK1 B 902      14.226  21.506   6.371  1.00 26.89     0.084 C 
BRANCH  27  28
HETATM   28  C21 MK1 B 902      14.900  21.671   7.728  1.00 29.35     0.222 C 
HETATM   29  N4  MK1 B 902      15.812  20.750   8.027  1.00 31.19    -0.350 N 
HETATM   30  H4  MK1 B 902      15.845  19.887   7.485  1.00  0.00     0.163 HD
HETATM   31  O3  MK1 B 902      14.675  22.670   8.427  1.00 32.66    -0.273 OA
BRANCH  29  32
HETATM   32  C22 MK1 B 902      16.764  20.944   9.107  1.00 29.22     0.147 C 
HETATM   33  C30 MK1 B 902      17.154  19.719   9.976  1.00 31.86    -0.027 A 
HETATM   34  C29 MK1 B 902      16.457  18.651  10.447  1.00 27.70     0.010 A 
HETATM   35  C25 MK1 B 902      18.660  19.763  10.362  1.00 31.29    -0.047 A 
HETATM   36  C28 MK1 B 902      17.063  17.668  11.218  1.00 29.01     0.001 A 
HETATM   37  C27 MK1 B 902      18.426  17.712  11.548  1.00 28.00     0.001 A 
HETATM   38  C26 MK1 B 902      19.235  18.769  11.118  1.00 32.00     0.008 A 
HETATM   39  C24 MK1 B 902      19.104  21.027   9.668  1.00 32.05     0.073 C 
HETATM   40  C23 MK1 B 902      18.112  21.426   8.600  1.00 28.82     0.149 C 
BRANCH  40  41
HETATM   41  O4  MK1 B 902      18.385  20.866   7.323  1.00 28.32    -0.393 OA
HETATM   42  H4  MK1 B 902      18.887  21.478   6.796  1.00  0.00     0.210 HD
ENDBRANCH  40  41
ENDBRANCH  29  32
ENDBRANCH  27  28
BRANCH  27  43
HETATM   43  C14 MK1 B 902      15.311  21.413   5.284  1.00 28.67     0.052 C 
BRANCH  43  44
HETATM   44  C15 MK1 B 902      15.159  20.207   4.432  1.00 26.89    -0.057 A 
HETATM   45  C16 MK1 B 902      15.238  18.910   4.943  1.00 29.22     0.007 A 
HETATM   46  C17 MK1 B 902      15.127  17.812   4.103  1.00 29.22     0.001 A 
HETATM   47  C18 MK1 B 902      14.937  18.027   2.736  1.00 30.97     0.000 A 
HETATM   48  C19 MK1 B 902      14.850  19.326   2.221  1.00 29.25     0.001 A 
HETATM   49  C20 MK1 B 902      14.963  20.420   3.078  1.00 29.96     0.007 A 
ENDBRANCH  43  44
ENDBRANCH  27  43
ENDBRANCH  26  27
ENDBRANCH  23  26
ENDBRANCH  22  23
ENDBRANCH   4  22
TORSDOF 14
ENDMDL
MODEL 3
REMARK VINA RESULT:     -10.5      2.040     11.046
REMARK  14 active torsions:
REMARK  status: ('A' for Active; 'I' for Inactive)
REMARK    1  A    between atoms: N1_1  and  C31_43 
REMARK    2  A    between atoms: C2_3  and  C3_4 
REMARK       I    between atoms: C3_4  and  N2_6 
REMARK    3  A    between atoms: N2_6  and  C4_8 
REMARK    4  A    between atoms: N3_12  and  C10_15 
REMARK    5  A    between atoms: C10_15  and  C11_16 
REMARK    6  A    between atoms: C11_16  and  O2_17 
REMARK    7  A    between atoms: C11_16  and  C12_19 
REMARK    8  A    between atoms: C12_19  and  C13_20 
REMARK    9  A    between atoms: C13_20  and  C21_28 
REMARK   10  A    between atoms: C13_20  and  C14_21 
REMARK   11  A    between atoms: C14_21  and  C15_22 
REMARK       I    between atoms: C21_28  and  N4_30 
REMARK   12  A    between atoms: N4_30  and  C22_32 
REMARK   13  A    between atoms: C23_33  and  O4_34 
REMARK   14  A    between atoms: C31_43  and  C32_44 
ROOT
HETATM    1  N1  MK1 B 902      16.523  21.054   8.924  1.00 28.25     0.096 N 
HETATM    2  C1  MK1 B 902      15.985  20.418   7.691  1.00 30.30     0.307 C 
HETATM    3  C2  MK1 B 902      16.100  21.096   6.340  1.00 27.27     0.200 C 
HETATM    4  N3  MK1 B 902      15.387  22.397   6.590  1.00 28.91    -0.395 N 
HETATM    5  C8  MK1 B 902      15.607  23.100   7.879  1.00 26.24     0.148 C 
HETATM    6  C9  MK1 B 902      15.829  22.249   9.112  1.00 27.47     0.292 C 
ENDROOT
BRANCH   1   7
HETATM    7  C31 MK1 B 902      16.634  20.212  10.121  1.00 36.25     0.312 C 
BRANCH   7   8
HETATM    8  C32 MK1 B 902      17.398  18.883  10.094  1.00 42.75    -0.013 A 
HETATM    9  C36 MK1 B 902      17.014  17.907  10.989  1.00 44.71     0.012 A 
HETATM   10  C35 MK1 B 902      17.716  16.705  10.984  1.00 49.34     0.020 A 
HETATM   11  C34 MK1 B 902      18.776  16.520  10.090  1.00 50.60     0.116 A 
HETATM   12  N5  MK1 B 902      19.226  17.452   9.156  1.00 51.38    -0.273 NA
HETATM   13  C33 MK1 B 902      18.469  18.633   9.225  1.00 47.41     0.125 A 
ENDBRANCH   7   8
ENDBRANCH   1   7
BRANCH   3  14
HETATM   14  C3  MK1 B 902      15.411  20.233   5.318  1.00 28.85     0.242 C 
HETATM   15  O1  MK1 B 902      14.206  20.028   5.392  1.00 29.59    -0.271 OA
HETATM   16  N2  MK1 B 902      16.165  19.713   4.369  1.00 22.29    -0.351 N 
HETATM   17  H2  MK1 B 902      17.162  19.906   4.460  1.00  0.00     0.163 HD
BRANCH  16  18
HETATM   18  C4  MK1 B 902      15.808  18.923   3.234  1.00 23.47     0.022 C 
HETATM   19  C7  MK1 B 902      16.951  18.562   2.389  1.00 22.75     0.037 C 
HETATM   20  C5  MK1 B 902      14.923  19.804   2.333  1.00 27.66     0.037 C 
HETATM   21  C6  MK1 B 902      15.144  17.753   3.566  1.00 21.71     0.037 C 
ENDBRANCH  16  18
ENDBRANCH   3  14
BRANCH   4  22
HETATM   22  C10 MK1 B 902      15.373  23.370   5.517  1.00 20.86     0.149 C 
BRANCH  22  23
HETATM   23  C11 MK1 B 902      13.983  23.918   5.186  1.00 21.68     0.136 C 
BRANCH  23  24
HETATM   24  O2  MK1 B 902      14.446  25.123   4.654  1.00 15.87    -0.394 OA
HETATM   25  H2  MK1 B 902      13.690  25.655   4.432  1.00  0.00     0.210 HD
ENDBRANCH  23  24
BRANCH  23  26
HETATM   26  C12 MK1 B 902      13.025  23.282   4.162  1.00 21.49     0.047 C 
BRANCH  26  27
HETATM   27  C13 MK1 B 902      11.787  24.047   3.671  1.00 26.89     0.084 C 
BRANCH  27  28
HETATM   28  C21 MK1 B 902      10.841  24.399   4.813  1.00 29.35     0.222 C 
HETATM   29  N4  MK1 B 902      10.384  25.649   4.809  1.00 31.19    -0.350 N 
HETATM   30  H4  MK1 B 902      10.847  26.347   4.227  1.00  0.00     0.163 HD
HETATM   31  O3  MK1 B 902      10.455  23.527   5.606  1.00 32.66    -0.273 OA
BRANCH  29  32
HETATM   32  C22 MK1 B 902       9.241  26.043   5.615  1.00 29.22     0.147 C 
HETATM   33  C30 MK1 B 902       9.501  26.627   7.029  1.00 31.86    -0.027 A 
HETATM   34  C29 MK1 B 902      10.405  26.342   8.003  1.00 27.70     0.010 A 
HETATM   35  C25 MK1 B 902       8.500  27.772   7.354  1.00 31.29    -0.047 A 
HETATM   36  C28 MK1 B 902      10.426  27.037   9.204  1.00 29.01     0.001 A 
HETATM   37  C27 MK1 B 902       9.526  28.077   9.481  1.00 28.00     0.001 A 
HETATM   38  C26 MK1 B 902       8.551  28.450   8.549  1.00 32.00     0.008 A 
HETATM   39  C24 MK1 B 902       7.693  27.828   6.081  1.00 32.05     0.073 C 
HETATM   40  C23 MK1 B 902       8.430  27.144   4.952  1.00 28.82     0.149 C 
BRANCH  40  41
HETATM   41  O4  MK1 B 902       9.283  28.007   4.215  1.00 28.32    -0.393 OA
HETATM   42  H4  MK1 B 902       9.141  27.892   3.282  1.00  0.00     0.210 HD
ENDBRANCH  40  41
ENDBRANCH  29  32
ENDBRANCH  27  28
BRANCH  27  43
HETATM   43  C14 MK1 B 902      11.005  23.264   2.602  1.00 28.67     0.052 C 
BRANCH  43  44
HETATM   44  C15 MK1 B 902       9.696  23.888   2.285  1.00 26.89    -0.057 A 
HETATM   45  C16 MK1 B 902       9.584  25.179   1.765  1.00 29.22     0.007 A 
HETATM   46  C17 MK1 B 902       8.338  25.736   1.519  1.00 29.22     0.001 A 
HETATM   47  C18 MK1 B 902       7.197  24.983   1.802  1.00 30.97     0.000 A 
HETATM   48  C19 MK1 B 902       7.304  23.685   2.316  1.00 29.25     0.001 A 
HETATM   49  C20 MK1 B 902       8.565  23.138   2.558  1.00 29.96     0.007 A 
ENDBRANCH  43  44
ENDBRANCH  27  43
ENDBRANCH  26  27
ENDBRANCH  23  26
ENDBRANCH  22  23
ENDBRANCH   4  22
TORSDOF 14
ENDMDL
MODEL 4
REMARK VINA RESULT:     -10.2      2.427      4.578
REMARK  14 active torsions:
REMARK  status: ('A' for Active; 'I' for Inactive)
REMARK    1  A    between atoms: N1_1  and  C31_43 
REMARK    2  A    between atoms: C2_3  and  C3_4 
REMARK       I    between atoms: C3_4  and  N2_6 
REMARK    3  A    between atoms: N2_6  and  C4_8 
REMARK    4  A    between atoms: N3_12  and  C10_15 
REMARK    5  A    between atoms: C10_15  and  C11_16 
REMARK    6  A    between atoms: C11_16  and  O2_17 
REMARK    7  A    between atoms: C11_16  and  C12_19 
REMARK    8  A    between atoms: C12_19  and  C13_20 
REMARK    9  A    between atoms: C13_20  and  C21_28 
REMARK   10  A    between atoms: C13_20  and  C14_21 
REMARK   11  A    between atoms: C14_21  and  C15_22 
REMARK       I    between atoms: C21_28  and  N4_30 
REMARK   12  A    between atoms: N4_30  and  C22_32 
REMARK   13  A    between atoms: C23_33  and  O4_34 
REMARK   14  A    between atoms: C31_43  and  C32_44 
ROOT
HETATM    1  N1  MK1 B 902       5.531  24.107   3.492  1.00 28.25     0.096 N 
HETATM    2  C1  MK1 B 902       6.200  25.206   4.240  1.00 30.30     0.307 C 
HETATM    3  C2  MK1 B 902       7.416  25.916   3.679  1.00 27.27     0.200 C 
HETATM    4  N3  MK1 B 902       8.377  24.773   3.492  1.00 28.91    -0.395 N 
HETATM    5  C8  MK1 B 902       7.866  23.484   2.962  1.00 26.24     0.148 C 
HETATM    6  C9  MK1 B 902       6.459  23.076   3.351  1.00 27.47     0.292 C 
ENDROOT
BRANCH   1   7
HETATM    7  C31 MK1 B 902       4.207  23.682   3.963  1.00 36.25     0.312 C 
BRANCH   7   8
HETATM    8  C32 MK1 B 902       3.720  22.240   3.781  1.00 42.75    -0.013 A 
HETATM    9  C36 MK1 B 902       2.851  21.985   2.741  1.00 44.71     0.012 A 
HETATM   10  C35 MK1 B 902       2.389  20.681   2.583  1.00 49.34     0.020 A 
HETATM   11  C34 MK1 B 902       2.807  19.681   3.466  1.00 50.60     0.116 A 
HETATM   12  N5  MK1 B 902       3.680  19.854   4.539  1.00 51.38    -0.273 NA
HETATM   13  C33 MK1 B 902       4.100  21.191   4.630  1.00 47.41     0.125 A 
ENDBRANCH   7   8
ENDBRANCH   1   7
BRANCH   3  14
HETATM   14  C3  MK1 B 902       7.887  26.923   4.692  1.00 28.85     0.242 C 
HETATM   15  O1  MK1 B 902       8.656  27.818   4.364  1.00 29.59    -0.271 OA
HETATM   16  N2  MK1 B 902       7.445  26.781   5.927  1.00 22.29    -0.351 N 
HETATM   17  H2  MK1 B 902       6.865  25.956   6.082  1.00  0.00     0.163 HD
BRANCH  16  18
HETATM   18  C4  MK1 B 902       7.649  27.596   7.081  1.00 23.47     0.022 C 
HETATM   19  C7  MK1 B 902       7.246  26.949   8.334  1.00 22.75     0.037 C 
HETATM   20  C5  MK1 B 902       6.705  28.805   6.950  1.00 27.66     0.037 C 
HETATM   21  C6  MK1 B 902       8.959  28.021   7.229  1.00 21.71     0.037 C 
ENDBRANCH  16  18
ENDBRANCH   3  14
BRANCH   4  22
HETATM   22  C10 MK1 B 902       9.654  25.066   2.872  1.00 20.86     0.149 C 
BRANCH  22  23
HETATM   23  C11 MK1 B 902      10.719  23.991   3.094  1.00 21.68     0.136 C 
BRANCH  23  24
HETATM   24  O2  MK1 B 902      11.074  23.885   1.748  1.00 15.87    -0.394 OA
HETATM   25  H2  MK1 B 902      10.716  23.071   1.413  1.00  0.00     0.210 HD
ENDBRANCH  23  24
BRANCH  23  26
HETATM   26  C12 MK1 B 902      12.007  24.206   3.910  1.00 21.49     0.047 C 
BRANCH  26  27
HETATM   27  C13 MK1 B 902      12.092  23.745   5.372  1.00 26.89     0.084 C 
BRANCH  27  28
HETATM   28  C21 MK1 B 902      12.523  22.288   5.489  1.00 29.35     0.222 C 
HETATM   29  N4  MK1 B 902      13.656  21.978   4.866  1.00 31.19    -0.350 N 
HETATM   30  H4  MK1 B 902      14.036  22.622   4.172  1.00  0.00     0.163 HD
HETATM   31  O3  MK1 B 902      11.900  21.502   6.218  1.00 32.66    -0.273 OA
BRANCH  29  32
HETATM   32  C22 MK1 B 902      14.366  20.742   5.148  1.00 29.22     0.147 C 
HETATM   33  C30 MK1 B 902      15.112  20.036   3.985  1.00 31.86    -0.027 A 
HETATM   34  C29 MK1 B 902      14.831  19.866   2.666  1.00 27.70     0.010 A 
HETATM   35  C25 MK1 B 902      16.450  19.413   4.474  1.00 31.29    -0.047 A 
HETATM   36  C28 MK1 B 902      15.693  19.181   1.820  1.00 29.01     0.001 A 
HETATM   37  C27 MK1 B 902      16.904  18.635   2.270  1.00 28.00     0.001 A 
HETATM   38  C26 MK1 B 902      17.289  18.749   3.610  1.00 32.00     0.008 A 
HETATM   39  C24 MK1 B 902      16.444  19.808   5.930  1.00 32.05     0.073 C 
HETATM   40  C23 MK1 B 902      15.472  20.941   6.171  1.00 28.82     0.149 C 
BRANCH  40  41
HETATM   41  O4  MK1 B 902      16.046  22.232   6.028  1.00 28.32    -0.393 OA
HETATM   42  H4  MK1 B 902      16.899  22.261   6.447  1.00  0.00     0.210 HD
ENDBRANCH  40  41
ENDBRANCH  29  32
ENDBRANCH  27  28
BRANCH  27  43
HETATM   43  C14 MK1 B 902      10.760  23.932   6.120  1.00 28.67     0.052 C 
BRANCH  43  44
HETATM   44  C15 MK1 B 902      10.931  24.633   7.417  1.00 26.89    -0.057 A 
HETATM   45  C16 MK1 B 902       9.920  24.694   8.378  1.00 29.22     0.007 A 
HETATM   46  C17 MK1 B 902      10.111  25.393   9.561  1.00 29.22     0.001 A 
HETATM   47  C18 MK1 B 902      11.332  26.036   9.773  1.00 30.97     0.000 A 
HETATM   48  C19 MK1 B 902      12.352  25.971   8.815  1.00 29.25     0.001 A 
HETATM   49  C20 MK1 B 902      12.145  25.264   7.631  1.00 29.96     0.007 A 
ENDBRANCH  43  44
ENDBRANCH  27  43
ENDBRANCH  26  27
ENDBRANCH  23  26
ENDBRANCH  22  23
ENDBRANCH   4  22
TORSDOF 14
ENDMDL
MODEL 5
REMARK VINA RESULT:      -9.8      1.977     10.077
REMARK  14 active torsions:
REMARK  status: ('A' for Active; 'I' for Inactive)
REMARK    1  A    between atoms: N1_1  and  C31_43 
REMARK    2  A    between atoms: C2_3  and  C3_4 
REMARK       I    between atoms: C3_4  and  N2_6 
REMARK    3  A    between atoms: N2_6  and  C4_8 
REMARK    4  A    between atoms: N3_12  and  C10_15 
REMARK    5  A    between atoms: C10_15  and  C11_16 
REMARK    6  A    between atoms: C11_16  and  O2_17 
REMARK    7  A    between atoms: C11_16  and  C12_19 
REMARK    8  A    between atoms: C12_19  and  C13_20 
REMARK    9  A    between atoms: C13_20  and  C21_28 
REMARK   10  A    between atoms: C13_20  and  C14_21 
REMARK   11  A    between atoms: C14_21  and  C15_22 
REMARK       I    between atoms: C21_28  and  N4_30 
REMARK   12  A    between atoms: N4_30  and  C22_32 
REMARK   13  A    between atoms: C23_33  and  O4_34 
REMARK   14  A    between atoms: C31_43  and  C32_44 
ROOT
HETATM    1  N1  MK1 B 902      14.531  19.878   3.992  1.00 28.25     0.096 N 
HETATM    2  C1  MK1 B 902      15.025  20.356   5.311  1.00 30.30     0.307 C 
HETATM    3  C2  MK1 B 902      14.462  21.605   5.959  1.00 27.27     0.200 C 
HETATM    4  N3  MK1 B 902      14.741  22.646   4.908  1.00 28.91    -0.395 N 
HETATM    5  C8  MK1 B 902      14.530  22.298   3.480  1.00 26.24     0.148 C 
HETATM    6  C9  MK1 B 902      14.817  20.872   3.057  1.00 27.47     0.292 C 
ENDROOT
BRANCH   1   7
HETATM    7  C31 MK1 B 902      14.912  18.521   3.582  1.00 36.25     0.312 C 
BRANCH   7   8
HETATM    8  C32 MK1 B 902      16.346  18.008   3.755  1.00 42.75    -0.013 A 
HETATM    9  C36 MK1 B 902      16.592  17.135   4.793  1.00 44.71     0.012 A 
HETATM   10  C35 MK1 B 902      17.897  16.681   4.968  1.00 49.34     0.020 A 
HETATM   11  C34 MK1 B 902      18.908  17.115   4.104  1.00 50.60     0.116 A 
HETATM   12  N5  MK1 B 902      18.745  17.993   3.034  1.00 51.38    -0.273 NA
HETATM   13  C33 MK1 B 902      17.406  18.403   2.926  1.00 47.41     0.125 A 
ENDBRANCH   7   8
ENDBRANCH   1   7
BRANCH   3  14
HETATM   14  C3  MK1 B 902      15.207  21.850   7.243  1.00 28.85     0.242 C 
HETATM   15  O1  MK1 B 902      14.781  22.655   8.061  1.00 29.59    -0.271 OA
HETATM   16  N2  MK1 B 902      16.325  21.174   7.425  1.00 22.29    -0.351 N 
HETATM   17  H2  MK1 B 902      16.603  20.588   6.638  1.00  0.00     0.163 HD
BRANCH  16  18
HETATM   18  C4  MK1 B 902      17.208  21.132   8.546  1.00 23.47     0.022 C 
HETATM   19  C7  MK1 B 902      17.721  22.448   8.938  1.00 22.75     0.037 C 
HETATM   20  C5  MK1 B 902      18.456  20.345   8.106  1.00 27.66     0.037 C 
HETATM   21  C6  MK1 B 902      16.641  20.549   9.669  1.00 21.71     0.037 C 
ENDBRANCH  16  18
ENDBRANCH   3  14
BRANCH   4  22
HETATM   22  C10 MK1 B 902      14.249  23.988   5.147  1.00 20.86     0.149 C 
BRANCH  22  23
HETATM   23  C11 MK1 B 902      12.783  24.049   5.577  1.00 21.68     0.136 C 
BRANCH  23  24
HETATM   24  O2  MK1 B 902      13.009  24.885   6.673  1.00 15.87    -0.394 OA
HETATM   25  H2  MK1 B 902      12.236  25.424   6.795  1.00  0.00     0.210 HD
ENDBRANCH  23  24
BRANCH  23  26
HETATM   26  C12 MK1 B 902      11.658  24.670   4.729  1.00 21.49     0.047 C 
BRANCH  26  27
HETATM   27  C13 MK1 B 902      10.188  24.510   5.142  1.00 26.89     0.084 C 
BRANCH  27  28
HETATM   28  C21 MK1 B 902       9.362  23.820   4.063  1.00 29.35     0.222 C 
HETATM   29  N4  MK1 B 902       8.065  24.116   4.062  1.00 31.19    -0.350 N 
HETATM   30  H4  MK1 B 902       7.656  24.566   4.881  1.00  0.00     0.163 HD
HETATM   31  O3  MK1 B 902       9.911  23.130   3.192  1.00 32.66    -0.273 OA
BRANCH  29  32
HETATM   32  C22 MK1 B 902       7.216  23.814   2.923  1.00 29.22     0.147 C 
HETATM   33  C30 MK1 B 902       5.732  23.446   3.185  1.00 31.86    -0.027 A 
HETATM   34  C29 MK1 B 902       5.107  22.730   4.157  1.00 27.70     0.010 A 
HETATM   35  C25 MK1 B 902       4.805  24.040   2.087  1.00 31.29    -0.047 A 
HETATM   36  C28 MK1 B 902       3.730  22.552   4.161  1.00 29.01     0.001 A 
HETATM   37  C27 MK1 B 902       2.903  23.105   3.172  1.00 28.00     0.001 A 
HETATM   38  C26 MK1 B 902       3.442  23.857   2.123  1.00 32.00     0.008 A 
HETATM   39  C24 MK1 B 902       5.804  24.768   1.221  1.00 32.05     0.073 C 
HETATM   40  C23 MK1 B 902       7.095  24.993   1.973  1.00 28.82     0.149 C 
BRANCH  40  41
HETATM   41  O4  MK1 B 902       7.135  26.214   2.697  1.00 28.32    -0.393 OA
HETATM   42  H4  MK1 B 902       6.291  26.385   3.100  1.00  0.00     0.210 HD
ENDBRANCH  40  41
ENDBRANCH  29  32
ENDBRANCH  27  28
BRANCH  27  43
HETATM   43  C14 MK1 B 902       9.530  25.857   5.488  1.00 28.67     0.052 C 
BRANCH  43  44
HETATM   44  C15 MK1 B 902       9.575  26.153   6.942  1.00 26.89    -0.057 A 
HETATM   45  C16 MK1 B 902       9.571  27.456   7.445  1.00 29.22     0.007 A 
HETATM   46  C17 MK1 B 902       9.651  27.686   8.810  1.00 29.22     0.001 A 
HETATM   47  C18 MK1 B 902       9.738  26.592   9.673  1.00 30.97     0.000 A 
HETATM   48  C19 MK1 B 902       9.735  25.284   9.174  1.00 29.25     0.001 A 
HETATM   49  C20 MK1 B 902       9.653  25.068   7.799  1.00 29.96     0.007 A 
ENDBRANCH  43  44
ENDBRANCH  27  43
ENDBRANCH  26  27
ENDBRANCH  23  26
ENDBRANCH  22  23
ENDBRANCH   4  22
TORSDOF 14
ENDMDL
MODEL 6
REMARK VINA RESULT:      -9.7      2.120      4.890
REMARK  14 active torsions:
REMARK  status: ('A' for Active; 'I' for Inactive)
REMARK    1  A    between atoms: N1_1  and  C31_43 
REMARK    2  A    between atoms: C2_3  and  C3_4 
REMARK       I    between atoms: C3_4  and  N2_6 
REMARK    3  A    between atoms: N2_6  and  C4_8 
REMARK    4  A    between atoms: N3_12  and  C10_15 
REMARK    5  A    between atoms: C10_15  and  C11_16 
REMARK    6  A    between atoms: C11_16  and  O2_17 
REMARK    7  A    between atoms: C11_16  and  C12_19 
REMARK    8  A    between atoms: C12_19  and  C13_20 
REMARK    9  A    between atoms: C13_20  and  C21_28 
REMARK   10  A    between atoms: C13_20  and  C14_21 
REMARK   11  A    between atoms: C14_21  and  C15_22 
REMARK       I    between atoms: C21_28  and  N4_30 
REMARK   12  A    between atoms: N4_30  and  C22_32 
REMARK   13  A    between atoms: C23_33  and  O4_34 
REMARK   14  A    between atoms: C31_43  and  C32_44 
ROOT
HETATM    1  N1  MK1 B 902      11.608  24.325   3.531  1.00 28.25     0.096 N 
HETATM    2  C1  MK1 B 902      11.279  24.950   4.840  1.00 30.30     0.307 C 
HETATM    3  C2  MK1 B 902      12.236  24.874   6.013  1.00 27.27     0.200 C 
HETATM    4  N3  MK1 B 902      12.389  23.387   6.187  1.00 28.91    -0.395 N 
HETATM    5  C8  MK1 B 902      12.506  22.532   4.979  1.00 26.24     0.148 C 
HETATM    6  C9  MK1 B 902      11.734  22.953   3.745  1.00 27.47     0.292 C 
ENDROOT
BRANCH   1   7
HETATM    7  C31 MK1 B 902      10.774  24.694   2.381  1.00 36.25     0.312 C 
BRANCH   7   8
HETATM    8  C32 MK1 B 902       9.254  24.847   2.515  1.00 42.75    -0.013 A 
HETATM    9  C36 MK1 B 902       8.486  23.705   2.435  1.00 44.71     0.012 A 
HETATM   10  C35 MK1 B 902       7.104  23.840   2.535  1.00 49.34     0.020 A 
HETATM   11  C34 MK1 B 902       6.538  25.107   2.708  1.00 50.60     0.116 A 
HETATM   12  N5  MK1 B 902       7.240  26.309   2.798  1.00 51.38    -0.273 NA
HETATM   13  C33 MK1 B 902       8.623  26.087   2.689  1.00 47.41     0.125 A 
ENDBRANCH   7   8
ENDBRANCH   1   7
BRANCH   3  14
HETATM   14  C3  MK1 B 902      11.590  25.543   7.196  1.00 28.85     0.242 C 
HETATM   15  O1  MK1 B 902      12.265  25.883   8.159  1.00 29.59    -0.271 OA
HETATM   16  N2  MK1 B 902      10.285  25.723   7.142  1.00 22.29    -0.351 N 
HETATM   17  H2  MK1 B 902       9.832  25.334   6.315  1.00  0.00     0.163 HD
BRANCH  16  18
HETATM   18  C4  MK1 B 902       9.403  26.377   8.056  1.00 23.47     0.022 C 
HETATM   19  C7  MK1 B 902       8.134  26.792   7.450  1.00 22.75     0.037 C 
HETATM   20  C5  MK1 B 902      10.083  27.695   8.472  1.00 27.66     0.037 C 
HETATM   21  C6  MK1 B 902       9.107  25.613   9.174  1.00 21.71     0.037 C 
ENDBRANCH  16  18
ENDBRANCH   3  14
BRANCH   4  22
HETATM   22  C10 MK1 B 902      13.328  22.923   7.189  1.00 20.86     0.149 C 
BRANCH  22  23
HETATM   23  C11 MK1 B 902      14.776  23.341   6.932  1.00 21.68     0.136 C 
BRANCH  23  24
HETATM   24  O2  MK1 B 902      14.877  24.150   8.065  1.00 15.87    -0.394 OA
HETATM   25  H2  MK1 B 902      14.043  24.125   8.519  1.00  0.00     0.210 HD
ENDBRANCH  23  24
BRANCH  23  26
HETATM   26  C12 MK1 B 902      15.970  22.369   6.933  1.00 21.49     0.047 C 
BRANCH  26  27
HETATM   27  C13 MK1 B 902      15.777  20.895   7.317  1.00 26.89     0.084 C 
BRANCH  27  28
HETATM   28  C21 MK1 B 902      15.976  20.661   8.810  1.00 29.35     0.222 C 
HETATM   29  N4  MK1 B 902      16.636  19.551   9.129  1.00 31.19    -0.350 N 
HETATM   30  H4  MK1 B 902      16.756  18.822   8.425  1.00  0.00     0.163 HD
HETATM   31  O3  MK1 B 902      15.637  21.522   9.634  1.00 32.66    -0.273 OA
BRANCH  29  32
HETATM   32  C22 MK1 B 902      17.189  19.350  10.457  1.00 29.22     0.147 C 
HETATM   33  C30 MK1 B 902      17.102  17.935  11.087  1.00 31.86    -0.027 A 
HETATM   34  C29 MK1 B 902      16.153  16.962  11.064  1.00 27.70     0.010 A 
HETATM   35  C25 MK1 B 902      18.385  17.605  11.902  1.00 31.29    -0.047 A 
HETATM   36  C28 MK1 B 902      16.332  15.754  11.725  1.00 29.01     0.001 A 
HETATM   37  C27 MK1 B 902      17.500  15.462  12.445  1.00 28.00     0.001 A 
HETATM   38  C26 MK1 B 902      18.538  16.395  12.538  1.00 32.00     0.008 A 
HETATM   39  C24 MK1 B 902      19.198  18.858  11.691  1.00 32.05     0.073 C 
HETATM   40  C23 MK1 B 902      18.681  19.634  10.502  1.00 28.82     0.149 C 
BRANCH  40  41
HETATM   41  O4  MK1 B 902      19.288  19.272   9.270  1.00 28.32    -0.393 OA
HETATM   42  H4  MK1 B 902      18.732  19.527   8.542  1.00  0.00     0.210 HD
ENDBRANCH  40  41
ENDBRANCH  29  32
ENDBRANCH  27  28
BRANCH  27  43
HETATM   43  C14 MK1 B 902      16.719  19.961   6.537  1.00 28.67     0.052 C 
BRANCH  43  44
HETATM   44  C15 MK1 B 902      16.122  19.488   5.263  1.00 26.89    -0.057 A 
HETATM   45  C16 MK1 B 902      16.082  18.138   4.907  1.00 29.22     0.007 A 
HETATM   46  C17 MK1 B 902      15.547  17.744   3.689  1.00 29.22     0.001 A 
HETATM   47  C18 MK1 B 902      15.050  18.722   2.825  1.00 30.97     0.000 A 
HETATM   48  C19 MK1 B 902      15.081  20.076   3.181  1.00 29.25     0.001 A 
HETATM   49  C20 MK1 B 902      15.622  20.456   4.409  1.00 29.96     0.007 A 
ENDBRANCH  43  44
ENDBRANCH  27  43
ENDBRANCH  26  27
ENDBRANCH  23  26
ENDBRANCH  22  23
ENDBRANCH   4  22
TORSDOF 14
ENDMDL
MODEL 7
REMARK VINA RESULT:      -9.6      1.618      2.140
REMARK  14 active torsions:
REMARK  status: ('A' for Active; 'I' for Inactive)
REMARK    1  A    between atoms: N1_1  and  C31_43 
REMARK    2  A    between atoms: C2_3  and  C3_4 
REMARK       I    between atoms: C3_4  and  N2_6 
REMARK    3  A    between atoms: N2_6  and  C4_8 
REMARK    4  A    between atoms: N3_12  and  C10_15 
REMARK    5  A    between atoms: C10_15  and  C11_16 
REMARK    6  A    between atoms: C11_16  and  O2_17 
REMARK    7  A    between atoms: C11_16  and  C12_19 
REMARK    8  A    between atoms: C12_19  and  C13_20 
REMARK    9  A    between atoms: C13_20  and  C21_28 
REMARK   10  A    between atoms: C13_20  and  C14_21 
REMARK   11  A    between atoms: C14_21  and  C15_22 
REMARK       I    between atoms: C21_28  and  N4_30 
REMARK   12  A    between atoms: N4_30  and  C22_32 
REMARK   13  A    between atoms: C23_33  and  O4_34 
REMARK   14  A    between atoms: C31_43  and  C32_44 
ROOT
HETATM    1  N1  MK1 B 902      10.291  23.951   3.809  1.00 28.25     0.096 N 
HETATM    2  C1  MK1 B 902       9.742  24.934   4.781  1.00 30.30     0.307 C 
HETATM    3  C2  MK1 B 902      10.576  25.452   5.936  1.00 27.27     0.200 C 
HETATM    4  N3  MK1 B 902      10.929  24.177   6.652  1.00 28.91    -0.395 N 
HETATM    5  C8  MK1 B 902      11.294  22.981   5.852  1.00 26.24     0.148 C 
HETATM    6  C9  MK1 B 902      10.597  22.791   4.520  1.00 27.47     0.292 C 
ENDROOT
BRANCH   1   7
HETATM    7  C31 MK1 B 902       9.532  23.732   2.572  1.00 36.25     0.312 C 
BRANCH   7   8
HETATM    8  C32 MK1 B 902       8.010  23.914   2.527  1.00 42.75    -0.013 A 
HETATM    9  C36 MK1 B 902       7.504  24.857   1.658  1.00 44.71     0.012 A 
HETATM   10  C35 MK1 B 902       6.125  25.042   1.626  1.00 49.34     0.020 A 
HETATM   11  C34 MK1 B 902       5.301  24.282   2.463  1.00 50.60     0.116 A 
HETATM   12  N5  MK1 B 902       5.729  23.311   3.367  1.00 51.38    -0.273 NA
HETATM   13  C33 MK1 B 902       7.127  23.186   3.338  1.00 47.41     0.125 A 
ENDBRANCH   7   8
ENDBRANCH   1   7
BRANCH   3  14
HETATM   14  C3  MK1 B 902       9.721  26.375   6.761  1.00 28.85     0.242 C 
HETATM   15  O1  MK1 B 902      10.216  27.026   7.673  1.00 29.59    -0.271 OA
HETATM   16  N2  MK1 B 902       8.438  26.429   6.462  1.00 22.29    -0.351 N 
HETATM   17  H2  MK1 B 902       8.141  25.787   5.727  1.00  0.00     0.163 HD
BRANCH  16  18
HETATM   18  C4  MK1 B 902       7.396  27.242   7.003  1.00 23.47     0.022 C 
HETATM   19  C7  MK1 B 902       7.025  26.883   8.376  1.00 22.75     0.037 C 
HETATM   20  C5  MK1 B 902       6.130  26.961   6.174  1.00 27.66     0.037 C 
HETATM   21  C6  MK1 B 902       7.692  28.596   6.987  1.00 21.71     0.037 C 
ENDBRANCH  16  18
ENDBRANCH   3  14
BRANCH   4  22
HETATM   22  C10 MK1 B 902      11.820  24.274   7.791  1.00 20.86     0.149 C 
BRANCH  22  23
HETATM   23  C11 MK1 B 902      13.304  24.319   7.423  1.00 21.68     0.136 C 
BRANCH  23  24
HETATM   24  O2  MK1 B 902      13.516  25.609   7.912  1.00 15.87    -0.394 OA
HETATM   25  H2  MK1 B 902      14.042  26.081   7.277  1.00  0.00     0.210 HD
ENDBRANCH  23  24
BRANCH  23  26
HETATM   26  C12 MK1 B 902      14.375  23.396   8.035  1.00 21.49     0.047 C 
BRANCH  26  27
HETATM   27  C13 MK1 B 902      15.639  23.034   7.243  1.00 26.89     0.084 C 
BRANCH  27  28
HETATM   28  C21 MK1 B 902      15.526  21.667   6.577  1.00 29.35     0.222 C 
HETATM   29  N4  MK1 B 902      16.650  21.200   6.041  1.00 31.19    -0.350 N 
HETATM   30  H4  MK1 B 902      17.430  21.838   5.885  1.00  0.00     0.163 HD
HETATM   31  O3  MK1 B 902      14.474  21.014   6.651  1.00 32.66    -0.273 OA
BRANCH  29  32
HETATM   32  C22 MK1 B 902      16.792  19.802   5.671  1.00 29.22     0.147 C 
HETATM   33  C30 MK1 B 902      16.484  19.391   4.207  1.00 31.86    -0.027 A 
HETATM   34  C29 MK1 B 902      15.553  19.793   3.302  1.00 27.70     0.010 A 
HETATM   35  C25 MK1 B 902      17.469  18.292   3.715  1.00 31.29    -0.047 A 
HETATM   36  C28 MK1 B 902      15.497  19.254   2.024  1.00 29.01     0.001 A 
HETATM   37  C27 MK1 B 902      16.400  18.273   1.587  1.00 28.00     0.001 A 
HETATM   38  C26 MK1 B 902      17.396  17.784   2.439  1.00 32.00     0.008 A 
HETATM   39  C24 MK1 B 902      18.347  18.119   4.930  1.00 32.05     0.073 C 
HETATM   40  C23 MK1 B 902      18.217  19.306   5.855  1.00 28.82     0.149 C 
BRANCH  40  41
HETATM   41  O4  MK1 B 902      19.140  20.351   5.584  1.00 28.32    -0.393 OA
HETATM   42  H4  MK1 B 902      20.008  20.110   5.885  1.00  0.00     0.210 HD
ENDBRANCH  40  41
ENDBRANCH  29  32
ENDBRANCH  27  28
BRANCH  27  43
HETATM   43  C14 MK1 B 902      16.903  23.057   8.119  1.00 28.67     0.052 C 
BRANCH  43  44
HETATM   44  C15 MK1 B 902      17.062  21.817   8.920  1.00 26.89    -0.057 A 
HETATM   45  C16 MK1 B 902      18.251  21.086   8.946  1.00 29.22     0.007 A 
HETATM   46  C17 MK1 B 902      18.343  19.912   9.679  1.00 29.22     0.001 A 
HETATM   47  C18 MK1 B 902      17.224  19.474  10.390  1.00 30.97     0.000 A 
HETATM   48  C19 MK1 B 902      16.032  20.208  10.373  1.00 29.25     0.001 A 
HETATM   49  C20 MK1 B 902      15.955  21.387   9.631  1.00 29.96     0.007 A 
ENDBRANCH  43  44
ENDBRANCH  27  43
ENDBRANCH  26  27
ENDBRANCH  23  26
ENDBRANCH  22  23
ENDBRANCH   4  22
TORSDOF 14
ENDMDL
MODEL 8
REMARK VINA RESULT:      -9.4      2.433      4.255
REMARK  14 active torsions:
REMARK  status: ('A' for Active; 'I' for Inactive)
REMARK    1  A    between atoms: N1_1  and  C31_43 
REMARK    2  A    between atoms: C2_3  and  C3_4 
REMARK       I    between atoms: C3_4  and  N2_6 
REMARK    3  A    between atoms: N2_6  and  C4_8 
REMARK    4  A    between atoms: N3_12  and  C10_15 
REMARK    5  A    between atoms: C10_15  and  C11_16 
REMARK    6  A    between atoms: C11_16  and  O2_17 
REMARK    7  A    between atoms: C11_16  and  C12_19 
REMARK    8  A    between atoms: C12_19  and  C13_20 
REMARK    9  A    between atoms: C13_20  and  C21_28 
REMARK   10  A    between atoms: C13_20  and  C14_21 
REMARK   11  A    between atoms: C14_21  and  C15_22 
REMARK       I    between atoms: C21_28  and  N4_30 
REMARK   12  A    between atoms: N4_30  and  C22_32 
REMARK   13  A    between atoms: C23_33  and  O4_34 
REMARK   14  A    between atoms: C31_43  and  C32_44 
ROOT
HETATM    1  N1  MK1 B 902       6.355  24.171   3.043  1.00 28.25     0.096 N 
HETATM    2  C1  MK1 B 902       6.862  25.260   3.920  1.00 30.30     0.307 C 
HETATM    3  C2  MK1 B 902       8.283  25.775   3.796  1.00 27.27     0.200 C 
HETATM    4  N3  MK1 B 902       9.083  24.523   4.031  1.00 28.91    -0.395 N 
HETATM    5  C8  MK1 B 902       8.619  23.250   3.425  1.00 26.24     0.148 C 
HETATM    6  C9  MK1 B 902       7.124  23.037   3.303  1.00 27.47     0.292 C 
ENDROOT
BRANCH   1   7
HETATM    7  C31 MK1 B 902       4.906  23.941   3.027  1.00 36.25     0.312 C 
BRANCH   7   8
HETATM    8  C32 MK1 B 902       4.102  23.996   1.722  1.00 42.75    -0.013 A 
HETATM    9  C36 MK1 B 902       4.649  24.689   0.664  1.00 44.71     0.012 A 
HETATM   10  C35 MK1 B 902       3.915  24.759  -0.518  1.00 49.34     0.020 A 
HETATM   11  C34 MK1 B 902       2.665  24.140  -0.600  1.00 50.60     0.116 A 
HETATM   12  N5  MK1 B 902       2.042  23.422   0.420  1.00 51.38    -0.273 NA
HETATM   13  C33 MK1 B 902       2.843  23.397   1.573  1.00 47.41     0.125 A 
ENDBRANCH   7   8
ENDBRANCH   1   7
BRANCH   3  14
HETATM   14  C3  MK1 B 902       8.501  26.822   4.854  1.00 28.85     0.242 C 
HETATM   15  O1  MK1 B 902       9.145  27.833   4.601  1.00 29.59    -0.271 OA
HETATM   16  N2  MK1 B 902       7.984  26.587   6.044  1.00 22.29    -0.351 N 
HETATM   17  H2  MK1 B 902       7.531  25.678   6.142  1.00  0.00     0.163 HD
BRANCH  16  18
HETATM   18  C4  MK1 B 902       7.958  27.400   7.218  1.00 23.47     0.022 C 
HETATM   19  C7  MK1 B 902       7.608  26.660   8.435  1.00 22.75     0.037 C 
HETATM   20  C5  MK1 B 902       6.812  28.412   7.038  1.00 27.66     0.037 C 
HETATM   21  C6  MK1 B 902       9.153  28.061   7.455  1.00 21.71     0.037 C 
ENDBRANCH  16  18
ENDBRANCH   3  14
BRANCH   4  22
HETATM   22  C10 MK1 B 902      10.523  24.613   3.898  1.00 20.86     0.149 C 
BRANCH  22  23
HETATM   23  C11 MK1 B 902      11.142  23.514   3.033  1.00 21.68     0.136 C 
BRANCH  23  24
HETATM   24  O2  MK1 B 902      11.877  24.386   2.228  1.00 15.87    -0.394 OA
HETATM   25  H2  MK1 B 902      12.337  23.868   1.577  1.00  0.00     0.210 HD
ENDBRANCH  23  24
BRANCH  23  26
HETATM   26  C12 MK1 B 902      12.102  22.433   3.564  1.00 21.49     0.047 C 
BRANCH  26  27
HETATM   27  C13 MK1 B 902      13.144  22.773   4.639  1.00 26.89     0.084 C 
BRANCH  27  28
HETATM   28  C21 MK1 B 902      14.513  22.187   4.316  1.00 29.35     0.222 C 
HETATM   29  N4  MK1 B 902      14.501  20.950   3.827  1.00 31.19    -0.350 N 
HETATM   30  H4  MK1 B 902      13.656  20.387   3.914  1.00  0.00     0.163 HD
HETATM   31  O3  MK1 B 902      15.535  22.883   4.407  1.00 32.66    -0.273 OA
BRANCH  29  32
HETATM   32  C22 MK1 B 902      15.666  20.381   3.170  1.00 29.22     0.147 C 
HETATM   33  C30 MK1 B 902      16.664  19.555   4.023  1.00 31.86    -0.027 A 
HETATM   34  C29 MK1 B 902      17.133  19.683   5.292  1.00 27.70     0.010 A 
HETATM   35  C25 MK1 B 902      17.216  18.342   3.221  1.00 31.29    -0.047 A 
HETATM   36  C28 MK1 B 902      18.041  18.780   5.829  1.00 29.01     0.001 A 
HETATM   37  C27 MK1 B 902      18.520  17.681   5.100  1.00 28.00     0.001 A 
HETATM   38  C26 MK1 B 902      18.106  17.457   3.783  1.00 32.00     0.008 A 
HETATM   39  C24 MK1 B 902      16.483  18.497   1.912  1.00 32.05     0.073 C 
HETATM   40  C23 MK1 B 902      15.280  19.398   2.077  1.00 28.82     0.149 C 
BRANCH  40  41
HETATM   41  O4  MK1 B 902      14.090  18.710   2.433  1.00 28.32    -0.393 OA
HETATM   42  H4  MK1 B 902      13.831  18.119   1.735  1.00  0.00     0.210 HD
ENDBRANCH  40  41
ENDBRANCH  29  32
ENDBRANCH  27  28
BRANCH  27  43
HETATM   43  C14 MK1 B 902      12.715  22.296   6.038  1.00 28.67     0.052 C 
BRANCH  43  44
HETATM   44  C15 MK1 B 902      12.343  23.421   6.932  1.00 26.89    -0.057 A 
HETATM   45  C16 MK1 B 902      11.018  23.813   7.138  1.00 29.22     0.007 A 
HETATM   46  C17 MK1 B 902      10.719  24.893   7.954  1.00 29.22     0.001 A 
HETATM   47  C18 MK1 B 902      11.767  25.585   8.565  1.00 30.97     0.000 A 
HETATM   48  C19 MK1 B 902      13.096  25.191   8.368  1.00 29.25     0.001 A 
HETATM   49  C20 MK1 B 902      13.381  24.101   7.545  1.00 29.96     0.007 A 
ENDBRANCH  43  44
ENDBRANCH  27  43
ENDBRANCH  26  27
ENDBRANCH  23  26
ENDBRANCH  22  23
ENDBRANCH   4  22
TORSDOF 14
ENDMDL
MODEL 9
REMARK VINA RESULT:      -9.4      1.784      2.693
REMARK  14 active torsions:
REMARK  status: ('A' for Active; 'I' for Inactive)
REMARK    1  A    between atoms: N1_1  and  C31_43 
REMARK    2  A    between atoms: C2_3  and  C3_4 
REMARK       I    between atoms: C3_4  and  N2_6 
REMARK    3  A    between atoms: N2_6  and  C4_8 
REMARK    4  A    between atoms: N3_12  and  C10_15 
REMARK    5  A    between atoms: C10_15  and  C11_16 
REMARK    6  A    between atoms: C11_16  and  O2_17 
REMARK    7  A    between atoms: C11_16  and  C12_19 
REMARK    8  A    between atoms: C12_19  and  C13_20 
REMARK    9  A    between atoms: C13_20  and  C21_28 
REMARK   10  A    between atoms: C13_20  and  C14_21 
REMARK   11  A    between atoms: C14_21  and  C15_22 
REMARK       I    between atoms: C21_28  and  N4_30 
REMARK   12  A    between atoms: N4_30  and  C22_32 
REMARK   13  A    between atoms: C23_33  and  O4_34 
REMARK   14  A    between atoms: C31_43  and  C32_44 
ROOT
HETATM    1  N1  MK1 B 902       9.798  24.054   3.625  1.00 28.25     0.096 N 
HETATM    2  C1  MK1 B 902       9.264  25.092   4.547  1.00 30.30     0.307 C 
HETATM    3  C2  MK1 B 902      10.144  25.746   5.593  1.00 27.27     0.200 C 
HETATM    4  N3  MK1 B 902      10.610  24.556   6.387  1.00 28.91    -0.395 N 
HETATM    5  C8  MK1 B 902      10.982  23.313   5.666  1.00 26.24     0.148 C 
HETATM    6  C9  MK1 B 902      10.209  22.975   4.407  1.00 27.47     0.292 C 
ENDROOT
BRANCH   1   7
HETATM    7  C31 MK1 B 902       8.971  23.693   2.467  1.00 36.25     0.312 C 
BRANCH   7   8
HETATM    8  C32 MK1 B 902       7.494  24.098   2.383  1.00 42.75    -0.013 A 
HETATM    9  C36 MK1 B 902       6.609  23.467   3.230  1.00 44.71     0.012 A 
HETATM   10  C35 MK1 B 902       5.263  23.817   3.145  1.00 49.34     0.020 A 
HETATM   11  C34 MK1 B 902       4.851  24.779   2.218  1.00 50.60     0.116 A 
HETATM   12  N5  MK1 B 902       5.678  25.462   1.328  1.00 51.38    -0.273 NA
HETATM   13  C33 MK1 B 902       7.014  25.054   1.477  1.00 47.41     0.125 A 
ENDBRANCH   7   8
ENDBRANCH   1   7
BRANCH   3  14
HETATM   14  C3  MK1 B 902       9.299  26.697   6.396  1.00 28.85     0.242 C 
HETATM   15  O1  MK1 B 902       9.818  27.631   6.994  1.00 29.59    -0.271 OA
HETATM   16  N2  MK1 B 902       8.002  26.463   6.429  1.00 22.29    -0.351 N 
HETATM   17  H2  MK1 B 902       7.707  25.615   5.945  1.00  0.00     0.163 HD
BRANCH  16  18
HETATM   18  C4  MK1 B 902       6.943  27.207   7.034  1.00 23.47     0.022 C 
HETATM   19  C7  MK1 B 902       6.965  28.634   6.700  1.00 22.75     0.037 C 
HETATM   20  C5  MK1 B 902       7.175  27.161   8.556  1.00 27.66     0.037 C 
HETATM   21  C6  MK1 B 902       5.684  26.720   6.723  1.00 21.71     0.037 C 
ENDBRANCH  16  18
ENDBRANCH   3  14
BRANCH   4  22
HETATM   22  C10 MK1 B 902      11.568  24.792   7.449  1.00 20.86     0.149 C 
BRANCH  22  23
HETATM   23  C11 MK1 B 902      12.991  24.337   7.121  1.00 21.68     0.136 C 
BRANCH  23  24
HETATM   24  O2  MK1 B 902      13.294  25.439   6.319  1.00 15.87    -0.394 OA
HETATM   25  H2  MK1 B 902      14.049  25.216   5.787  1.00  0.00     0.210 HD
ENDBRANCH  23  24
BRANCH  23  26
HETATM   26  C12 MK1 B 902      14.112  24.185   8.165  1.00 21.49     0.047 C 
BRANCH  26  27
HETATM   27  C13 MK1 B 902      15.297  23.243   7.908  1.00 26.89     0.084 C 
BRANCH  27  28
HETATM   28  C21 MK1 B 902      15.578  23.068   6.420  1.00 29.35     0.222 C 
HETATM   29  N4  MK1 B 902      15.712  21.810   6.010  1.00 31.19    -0.350 N 
HETATM   30  H4  MK1 B 902      15.861  21.074   6.700  1.00  0.00     0.163 HD
HETATM   31  O3  MK1 B 902      15.560  24.044   5.656  1.00 32.66    -0.273 OA
BRANCH  29  32
HETATM   32  C22 MK1 B 902      15.652  21.458   4.602  1.00 29.22     0.147 C 
HETATM   33  C30 MK1 B 902      16.191  20.071   4.164  1.00 31.86    -0.027 A 
HETATM   34  C29 MK1 B 902      17.246  19.313   4.564  1.00 27.70     0.010 A 
HETATM   35  C25 MK1 B 902      15.314  19.461   3.034  1.00 31.29    -0.047 A 
HETATM   36  C28 MK1 B 902      17.510  18.074   3.997  1.00 29.01     0.001 A 
HETATM   37  C27 MK1 B 902      16.703  17.527   2.988  1.00 28.00     0.001 A 
HETATM   38  C26 MK1 B 902      15.593  18.225   2.499  1.00 32.00     0.008 A 
HETATM   39  C24 MK1 B 902      14.260  20.527   2.871  1.00 32.05     0.073 C 
HETATM   40  C23 MK1 B 902      14.224  21.431   4.082  1.00 28.82     0.149 C 
BRANCH  40  41
HETATM   41  O4  MK1 B 902      13.338  20.993   5.102  1.00 28.32    -0.393 OA
HETATM   42  H4  MK1 B 902      13.383  20.048   5.193  1.00  0.00     0.210 HD
ENDBRANCH  40  41
ENDBRANCH  29  32
ENDBRANCH  27  28
BRANCH  27  43
HETATM   43  C14 MK1 B 902      15.088  21.857   8.542  1.00 28.67     0.052 C 
BRANCH  43  44
HETATM   44  C15 MK1 B 902      16.353  21.266   9.046  1.00 26.89    -0.057 A 
HETATM   45  C16 MK1 B 902      17.607  21.798   8.739  1.00 29.22     0.007 A 
HETATM   46  C17 MK1 B 902      18.765  21.192   9.202  1.00 29.22     0.001 A 
HETATM   47  C18 MK1 B 902      18.654  20.038   9.981  1.00 30.97     0.000 A 
HETATM   48  C19 MK1 B 902      17.399  19.505  10.298  1.00 29.25     0.001 A 
HETATM   49  C20 MK1 B 902      16.243  20.127   9.825  1.00 29.96     0.007 A 
ENDBRANCH  43  44
ENDBRANCH  27  43
ENDBRANCH  26  27
ENDBRANCH  23  26
ENDBRANCH  22  23
ENDBRANCH   4  22
TORSDOF 14
ENDMDL
MODEL 10
REMARK VINA RESULT:      -9.2      2.130     10.488
REMARK  14 active torsions:
REMARK  status: ('A' for Active; 'I' for Inactive)
REMARK    1  A    between atoms: N1_1  and  C31_43 
REMARK    2  A    between atoms: C2_3  and  C3_4 
REMARK       I    between atoms: C3_4  and  N2_6 
REMARK    3  A    between atoms: N2_6  and  C4_8 
REMARK    4  A    between atoms: N3_12  and  C10_15 
REMARK    5  A    between atoms: C10_15  and  C11_16 
REMARK    6  A    between atoms: C11_16  and  O2_17 
REMARK    7  A    between atoms: C11_16  and  C12_19 
REMARK    8  A    between atoms: C12_19  and  C13_20 
REMARK    9  A    between atoms: C13_20  and  C21_28 
REMARK   10  A    between atoms: C13_20  and  C14_21 
REMARK   11  A    between atoms: C14_21  and  C15_22 
REMARK       I    between atoms: C21_28  and  N4_30 
REMARK   12  A    between atoms: N4_30  and  C22_32 
REMARK   13  A    between atoms: C23_33  and  O4_34 
REMARK   14  A    between atoms: C31_43  and  C32_44 
ROOT
HETATM    1  N1  MK1 B 902      14.816  19.948   3.710  1.00 28.25     0.096 N 
HETATM    2  C1  MK1 B 902      14.911  20.433   5.113  1.00 30.30     0.307 C 
HETATM    3  C2  MK1 B 902      13.735  21.101   5.798  1.00 27.27     0.200 C 
HETATM    4  N3  MK1 B 902      13.466  22.261   4.879  1.00 28.91    -0.395 N 
HETATM    5  C8  MK1 B 902      13.545  22.049   3.412  1.00 26.24     0.148 C 
HETATM    6  C9  MK1 B 902      14.571  21.058   2.902  1.00 27.47     0.292 C 
ENDROOT
BRANCH   1   7
HETATM    7  C31 MK1 B 902      15.884  19.063   3.231  1.00 36.25     0.312 C 
BRANCH   7   8
HETATM    8  C32 MK1 B 902      16.861  18.392   4.203  1.00 42.75    -0.013 A 
HETATM    9  C36 MK1 B 902      17.819  19.185   4.797  1.00 44.71     0.012 A 
HETATM   10  C35 MK1 B 902      18.722  18.578   5.666  1.00 49.34     0.020 A 
HETATM   11  C34 MK1 B 902      18.639  17.204   5.908  1.00 50.60     0.116 A 
HETATM   12  N5  MK1 B 902      17.705  16.332   5.351  1.00 51.38    -0.273 NA
HETATM   13  C33 MK1 B 902      16.833  17.019   4.490  1.00 47.41     0.125 A 
ENDBRANCH   7   8
ENDBRANCH   1   7
BRANCH   3  14
HETATM   14  C3  MK1 B 902      14.168  21.526   7.175  1.00 28.85     0.242 C 
HETATM   15  O1  MK1 B 902      13.340  21.903   7.994  1.00 29.59    -0.271 OA
HETATM   16  N2  MK1 B 902      15.460  21.485   7.435  1.00 22.29    -0.351 N 
HETATM   17  H2  MK1 B 902      16.048  21.218   6.645  1.00  0.00     0.163 HD
BRANCH  16  18
HETATM   18  C4  MK1 B 902      16.168  21.754   8.645  1.00 23.47     0.022 C 
HETATM   19  C7  MK1 B 902      16.354  23.184   8.910  1.00 22.75     0.037 C 
HETATM   20  C5  MK1 B 902      17.595  21.206   8.462  1.00 27.66     0.037 C 
HETATM   21  C6  MK1 B 902      15.576  21.192   9.765  1.00 21.71     0.037 C 
ENDBRANCH  16  18
ENDBRANCH   3  14
BRANCH   4  22
HETATM   22  C10 MK1 B 902      12.320  23.098   5.175  1.00 20.86     0.149 C 
BRANCH  22  23
HETATM   23  C11 MK1 B 902      11.324  23.227   4.021  1.00 21.68     0.136 C 
BRANCH  23  24
HETATM   24  O2  MK1 B 902      10.445  22.258   4.505  1.00 15.87    -0.394 OA
HETATM   25  H2  MK1 B 902       9.878  21.992   3.790  1.00  0.00     0.210 HD
ENDBRANCH  23  24
BRANCH  23  26
HETATM   26  C12 MK1 B 902      10.511  24.500   3.720  1.00 21.49     0.047 C 
BRANCH  26  27
HETATM   27  C13 MK1 B 902       9.401  24.963   4.675  1.00 26.89     0.084 C 
BRANCH  27  28
HETATM   28  C21 MK1 B 902       8.061  25.112   3.966  1.00 29.35     0.222 C 
HETATM   29  N4  MK1 B 902       7.010  25.282   4.763  1.00 31.19    -0.350 N 
HETATM   30  H4  MK1 B 902       7.099  25.070   5.757  1.00  0.00     0.163 HD
HETATM   31  O3  MK1 B 902       8.005  25.182   2.729  1.00 32.66    -0.273 OA
BRANCH  29  32
HETATM   32  C22 MK1 B 902       5.737  25.763   4.253  1.00 29.22     0.147 C 
HETATM   33  C30 MK1 B 902       4.644  24.721   3.898  1.00 31.86    -0.027 A 
HETATM   34  C29 MK1 B 902       4.683  23.482   3.341  1.00 27.70     0.010 A 
HETATM   35  C25 MK1 B 902       3.229  25.243   4.277  1.00 31.29    -0.047 A 
HETATM   36  C28 MK1 B 902       3.529  22.739   3.132  1.00 29.01     0.001 A 
HETATM   37  C27 MK1 B 902       2.259  23.215   3.491  1.00 28.00     0.001 A 
HETATM   38  C26 MK1 B 902       2.104  24.480   4.069  1.00 32.00     0.008 A 
HETATM   39  C24 MK1 B 902       3.562  26.588   4.874  1.00 32.05     0.073 C 
HETATM   40  C23 MK1 B 902       5.023  26.656   5.254  1.00 28.82     0.149 C 
BRANCH  40  41
HETATM   41  O4  MK1 B 902       5.294  26.224   6.579  1.00 28.32    -0.393 OA
HETATM   42  H4  MK1 B 902       5.843  25.448   6.567  1.00  0.00     0.210 HD
ENDBRANCH  40  41
ENDBRANCH  29  32
ENDBRANCH  27  28
BRANCH  27  43
HETATM   43  C14 MK1 B 902       9.748  26.291   5.370  1.00 28.67     0.052 C 
BRANCH  43  44
HETATM   44  C15 MK1 B 902      10.038  26.116   6.815  1.00 26.89    -0.057 A 
HETATM   45  C16 MK1 B 902       9.051  26.213   7.798  1.00 29.22     0.007 A 
HETATM   46  C17 MK1 B 902       9.375  26.079   9.140  1.00 29.22     0.001 A 
HETATM   47  C18 MK1 B 902      10.707  25.848   9.491  1.00 30.97     0.000 A 
HETATM   48  C19 MK1 B 902      11.698  25.742   8.508  1.00 29.25     0.001 A 
HETATM   49  C20 MK1 B 902      11.357  25.879   7.162  1.00 29.96     0.007 A 
ENDBRANCH  43  44
ENDBRANCH  27  43
ENDBRANCH  26  27
ENDBRANCH  23  26
ENDBRANCH  22  23
ENDBRANCH   4  22
TORSDOF 14
ENDMDL
MODEL 11
REMARK VINA RESULT:      -9.1      1.814      2.822
REMARK  14 active torsions:
REMARK  status: ('A' for Active; 'I' for Inactive)
REMARK    1  A    between atoms: N1_1  and  C31_43 
REMARK    2  A    between atoms: C2_3  and  C3_4 
REMARK       I    between atoms: C3_4  and  N2_6 
REMARK    3  A    between atoms: N2_6  and  C4_8 
REMARK    4  A    between atoms: N3_12  and  C10_15 
REMARK    5  A    between atoms: C10_15  and  C11_16 
REMARK    6  A    between atoms: C11_16  and  O2_17 
REMARK    7  A    between atoms: C11_16  and  C12_19 
REMARK    8  A    between atoms: C12_19  and  C13_20 
REMARK    9  A    between atoms: C13_20  and  C21_28 
REMARK   10  A    between atoms: C13_20  and  C14_21 
REMARK   11  A    between atoms: C14_21  and  C15_22 
REMARK       I    between atoms: C21_28  and  N4_30 
REMARK   12  A    between atoms: N4_30  and  C22_32 
REMARK   13  A    between atoms: C23_33  and  O4_34 
REMARK   14  A    between atoms: C31_43  and  C32_44 
ROOT
HETATM    1  N1  MK1 B 902       7.251  24.756   2.321  1.00 28.25     0.096 N 
HETATM    2  C1  MK1 B 902       7.542  25.614   3.501  1.00 30.30     0.307 C 
HETATM    3  C2  MK1 B 902       8.965  25.904   3.934  1.00 27.27     0.200 C 
HETATM    4  N3  MK1 B 902       9.500  24.517   4.173  1.00 28.91    -0.395 N 
HETATM    5  C8  MK1 B 902       9.138  23.435   3.224  1.00 26.24     0.148 C 
HETATM    6  C9  MK1 B 902       7.761  23.487   2.595  1.00 27.47     0.292 C 
ENDROOT
BRANCH   1   7
HETATM    7  C31 MK1 B 902       5.878  24.768   1.802  1.00 36.25     0.312 C 
BRANCH   7   8
HETATM    8  C32 MK1 B 902       4.669  24.774   2.745  1.00 42.75    -0.013 A 
HETATM    9  C36 MK1 B 902       4.299  23.577   3.319  1.00 44.71     0.012 A 
HETATM   10  C35 MK1 B 902       3.189  23.572   4.160  1.00 49.34     0.020 A 
HETATM   11  C34 MK1 B 902       2.488  24.759   4.395  1.00 50.60     0.116 A 
HETATM   12  N5  MK1 B 902       2.794  26.008   3.856  1.00 51.38    -0.273 NA
HETATM   13  C33 MK1 B 902       3.922  25.928   3.023  1.00 47.41     0.125 A 
ENDBRANCH   7   8
ENDBRANCH   1   7
BRANCH   3  14
HETATM   14  C3  MK1 B 902       8.919  26.741   5.183  1.00 28.85     0.242 C 
HETATM   15  O1  MK1 B 902       9.036  27.958   5.116  1.00 29.59    -0.271 OA
HETATM   16  N2  MK1 B 902       8.764  26.103   6.327  1.00 22.29    -0.351 N 
HETATM   17  H2  MK1 B 902       8.747  25.085   6.250  1.00  0.00     0.163 HD
BRANCH  16  18
HETATM   18  C4  MK1 B 902       8.615  26.607   7.654  1.00 23.47     0.022 C 
HETATM   19  C7  MK1 B 902       8.814  25.590   8.692  1.00 22.75     0.037 C 
HETATM   20  C5  MK1 B 902       7.145  27.036   7.810  1.00 27.66     0.037 C 
HETATM   21  C6  MK1 B 902       9.460  27.668   7.937  1.00 21.71     0.037 C 
ENDBRANCH  16  18
ENDBRANCH   3  14
BRANCH   4  22
HETATM   22  C10 MK1 B 902      10.900  24.391   4.525  1.00 20.86     0.149 C 
BRANCH  22  23
HETATM   23  C11 MK1 B 902      11.609  23.213   3.855  1.00 21.68     0.136 C 
BRANCH  23  24
HETATM   24  O2  MK1 B 902      12.559  23.996   3.196  1.00 15.87    -0.394 OA
HETATM   25  H2  MK1 B 902      12.722  24.767   3.725  1.00  0.00     0.210 HD
ENDBRANCH  23  24
BRANCH  23  26
HETATM   26  C12 MK1 B 902      12.355  22.104   4.620  1.00 21.49     0.047 C 
BRANCH  26  27
HETATM   27  C13 MK1 B 902      13.617  22.428   5.432  1.00 26.89     0.084 C 
BRANCH  27  28
HETATM   28  C21 MK1 B 902      14.889  22.004   4.708  1.00 29.35     0.222 C 
HETATM   29  N4  MK1 B 902      15.025  20.695   4.514  1.00 31.19    -0.350 N 
HETATM   30  H4  MK1 B 902      14.437  20.049   5.042  1.00  0.00     0.163 HD
HETATM   31  O3  MK1 B 902      15.663  22.853   4.243  1.00 32.66    -0.273 OA
BRANCH  29  32
HETATM   32  C22 MK1 B 902      15.992  20.162   3.570  1.00 29.22     0.147 C 
HETATM   33  C30 MK1 B 902      17.069  19.176   4.093  1.00 31.86    -0.027 A 
HETATM   34  C29 MK1 B 902      17.784  19.104   5.247  1.00 27.70     0.010 A 
HETATM   35  C25 MK1 B 902      17.358  18.057   3.052  1.00 31.29    -0.047 A 
HETATM   36  C28 MK1 B 902      18.705  18.090   5.472  1.00 29.01     0.001 A 
HETATM   37  C27 MK1 B 902      18.947  17.078   4.531  1.00 28.00     0.001 A 
HETATM   38  C26 MK1 B 902      18.269  17.059   3.307  1.00 32.00     0.008 A 
HETATM   39  C24 MK1 B 902      16.399  18.428   1.948  1.00 32.05     0.073 C 
HETATM   40  C23 MK1 B 902      15.326  19.359   2.465  1.00 28.82     0.149 C 
BRANCH  40  41
HETATM   41  O4  MK1 B 902      14.177  18.691   2.967  1.00 28.32    -0.393 OA
HETATM   42  H4  MK1 B 902      14.174  18.710   3.917  1.00  0.00     0.210 HD
ENDBRANCH  40  41
ENDBRANCH  29  32
ENDBRANCH  27  28
BRANCH  27  43
HETATM   43  C14 MK1 B 902      13.596  21.775   6.825  1.00 28.67     0.052 C 
BRANCH  43  44
HETATM   44  C15 MK1 B 902      14.841  22.034   7.592  1.00 26.89    -0.057 A 
HETATM   45  C16 MK1 B 902      15.252  23.320   7.947  1.00 29.22     0.007 A 
HETATM   46  C17 MK1 B 902      16.442  23.518   8.632  1.00 29.22     0.001 A 
HETATM   47  C18 MK1 B 902      17.222  22.408   8.959  1.00 30.97     0.000 A 
HETATM   48  C19 MK1 B 902      16.810  21.115   8.612  1.00 29.25     0.001 A 
HETATM   49  C20 MK1 B 902      15.611  20.932   7.924  1.00 29.96     0.007 A 
ENDBRANCH  43  44
ENDBRANCH  27  43
ENDBRANCH  26  27
ENDBRANCH  23  26
ENDBRANCH  22  23
ENDBRANCH   4  22
TORSDOF 14
ENDMDL
MODEL 12
REMARK VINA RESULT:      -9.0      2.607     10.923
REMARK  14 active torsions:
REMARK  status: ('A' for Active; 'I' for Inactive)
REMARK    1  A    between atoms: N1_1  and  C31_43 
REMARK    2  A    between atoms: C2_3  and  C3_4 
REMARK       I    between atoms: C3_4  and  N2_6 
REMARK    3  A    between atoms: N2_6  and  C4_8 
REMARK    4  A    between atoms: N3_12  and  C10_15 
REMARK    5  A    between atoms: C10_15  and  C11_16 
REMARK    6  A    between atoms: C11_16  and  O2_17 
REMARK    7  A    between atoms: C11_16  and  C12_19 
REMARK    8  A    between atoms: C12_19  and  C13_20 
REMARK    9  A    between atoms: C13_20  and  C21_28 
REMARK   10  A    between atoms: C13_20  and  C14_21 
REMARK   11  A    between atoms: C14_21  and  C15_22 
REMARK       I    between atoms: C21_28  and  N4_30 
REMARK   12  A    between atoms: N4_30  and  C22_32 
REMARK   13  A    between atoms: C23_33  and  O4_34 
REMARK   14  A    between atoms: C31_43  and  C32_44 
ROOT
HETATM    1  N1  MK1 B 902      14.110  21.579   5.810  1.00 28.25     0.096 N 
HETATM    2  C1  MK1 B 902      13.779  22.703   6.726  1.00 30.30     0.307 C 
HETATM    3  C2  MK1 B 902      12.497  23.497   6.570  1.00 27.27     0.200 C 
HETATM    4  N3  MK1 B 902      12.628  24.013   5.162  1.00 28.91    -0.395 N 
HETATM    5  C8  MK1 B 902      13.164  23.110   4.113  1.00 26.24     0.148 C 
HETATM    6  C9  MK1 B 902      14.225  22.110   4.525  1.00 27.47     0.292 C 
ENDROOT
BRANCH   1   7
HETATM    7  C31 MK1 B 902      15.207  20.689   6.207  1.00 36.25     0.312 C 
BRANCH   7   8
HETATM    8  C32 MK1 B 902      15.794  19.660   5.233  1.00 42.75    -0.013 A 
HETATM    9  C36 MK1 B 902      14.999  18.593   4.875  1.00 44.71     0.012 A 
HETATM   10  C35 MK1 B 902      15.533  17.645   4.006  1.00 49.34     0.020 A 
HETATM   11  C34 MK1 B 902      16.839  17.794   3.529  1.00 50.60     0.116 A 
HETATM   12  N5  MK1 B 902      17.707  18.839   3.841  1.00 51.38    -0.273 NA
HETATM   13  C33 MK1 B 902      17.095  19.750   4.718  1.00 47.41     0.125 A 
ENDBRANCH   7   8
ENDBRANCH   1   7
BRANCH   3  14
HETATM   14  C3  MK1 B 902      12.488  24.592   7.601  1.00 28.85     0.242 C 
HETATM   15  O1  MK1 B 902      13.530  25.150   7.919  1.00 29.59    -0.271 OA
HETATM   16  N2  MK1 B 902      11.324  24.898   8.139  1.00 22.29    -0.351 N 
HETATM   17  H2  MK1 B 902      10.545  24.312   7.836  1.00  0.00     0.163 HD
BRANCH  16  18
HETATM   18  C4  MK1 B 902      10.978  25.917   9.077  1.00 23.47     0.022 C 
HETATM   19  C7  MK1 B 902      11.990  26.123  10.118  1.00 22.75     0.037 C 
HETATM   20  C5  MK1 B 902       9.734  25.424   9.839  1.00 27.66     0.037 C 
HETATM   21  C6  MK1 B 902      10.726  27.145   8.486  1.00 21.71     0.037 C 
ENDBRANCH  16  18
ENDBRANCH   3  14
BRANCH   4  22
HETATM   22  C10 MK1 B 902      11.513  24.763   4.617  1.00 20.86     0.149 C 
BRANCH  22  23
HETATM   23  C11 MK1 B 902      10.160  24.413   5.238  1.00 21.68     0.136 C 
BRANCH  23  24
HETATM   24  O2  MK1 B 902       9.884  25.709   5.678  1.00 15.87    -0.394 OA
HETATM   25  H2  MK1 B 902      10.663  26.046   6.106  1.00  0.00     0.210 HD
ENDBRANCH  23  24
BRANCH  23  26
HETATM   26  C12 MK1 B 902       8.944  23.914   4.436  1.00 21.49     0.047 C 
BRANCH  26  27
HETATM   27  C13 MK1 B 902       8.468  24.669   3.187  1.00 26.89     0.084 C 
BRANCH  27  28
HETATM   28  C21 MK1 B 902       7.612  25.879   3.541  1.00 29.35     0.222 C 
HETATM   29  N4  MK1 B 902       6.885  25.758   4.648  1.00 31.19    -0.350 N 
HETATM   30  H4  MK1 B 902       6.745  24.833   5.055  1.00  0.00     0.163 HD
HETATM   31  O3  MK1 B 902       7.698  26.927   2.884  1.00 32.66    -0.273 OA
BRANCH  29  32
HETATM   32  C22 MK1 B 902       6.284  26.913   5.294  1.00 29.22     0.147 C 
HETATM   33  C30 MK1 B 902       4.840  26.781   5.846  1.00 31.86    -0.027 A 
HETATM   34  C29 MK1 B 902       3.728  26.138   5.404  1.00 27.70     0.010 A 
HETATM   35  C25 MK1 B 902       4.680  27.561   7.183  1.00 31.29    -0.047 A 
HETATM   36  C28 MK1 B 902       2.534  26.177   6.110  1.00 29.01     0.001 A 
HETATM   37  C27 MK1 B 902       2.405  26.872   7.322  1.00 28.00     0.001 A 
HETATM   38  C26 MK1 B 902       3.487  27.572   7.866  1.00 32.00     0.008 A 
HETATM   39  C24 MK1 B 902       6.073  28.108   7.374  1.00 32.05     0.073 C 
HETATM   40  C23 MK1 B 902       7.064  27.350   6.522  1.00 28.82     0.149 C 
BRANCH  40  41
HETATM   41  O4  MK1 B 902       7.635  26.221   7.169  1.00 28.32    -0.393 OA
HETATM   42  H4  MK1 B 902       6.958  25.715   7.604  1.00  0.00     0.210 HD
ENDBRANCH  40  41
ENDBRANCH  29  32
ENDBRANCH  27  28
BRANCH  27  43
HETATM   43  C14 MK1 B 902       7.679  23.764   2.225  1.00 28.67     0.052 C 
BRANCH  43  44
HETATM   44  C15 MK1 B 902       6.256  23.619   2.620  1.00 26.89    -0.057 A 
HETATM   45  C16 MK1 B 902       5.852  22.842   3.708  1.00 29.22     0.007 A 
HETATM   46  C17 MK1 B 902       4.508  22.706   4.019  1.00 29.22     0.001 A 
HETATM   47  C18 MK1 B 902       3.564  23.358   3.223  1.00 30.97     0.000 A 
HETATM   48  C19 MK1 B 902       3.964  24.145   2.136  1.00 29.25     0.001 A 
HETATM   49  C20 MK1 B 902       5.320  24.273   1.837  1.00 29.96     0.007 A 
ENDBRANCH  43  44
ENDBRANCH  27  43
ENDBRANCH  26  27
ENDBRANCH  23  26
ENDBRANCH  22  23
ENDBRANCH   4  22
TORSDOF 14
ENDMDL
MODEL 13
REMARK VINA RESULT:      -8.9      1.978      3.671
REMARK  14 active torsions:
REMARK  status: ('A' for Active; 'I' for Inactive)
REMARK    1  A    between atoms: N1_1  and  C31_43 
REMARK    2  A    between atoms: C2_3  and  C3_4 
REMARK       I    between atoms: C3_4  and  N2_6 
REMARK    3  A    between atoms: N2_6  and  C4_8 
REMARK    4  A    between atoms: N3_12  and  C10_15 
REMARK    5  A    between atoms: C10_15  and  C11_16 
REMARK    6  A    between atoms: C11_16  and  O2_17 
REMARK    7  A    between atoms: C11_16  and  C12_19 
REMARK    8  A    between atoms: C12_19  and  C13_20 
REMARK    9  A    between atoms: C13_20  and  C21_28 
REMARK   10  A    between atoms: C13_20  and  C14_21 
REMARK   11  A    between atoms: C14_21  and  C15_22 
REMARK       I    between atoms: C21_28  and  N4_30 
REMARK   12  A    between atoms: N4_30  and  C22_32 
REMARK   13  A    between atoms: C23_33  and  O4_34 
REMARK   14  A    between atoms: C31_43  and  C32_44 
ROOT
HETATM    1  N1  MK1 B 902      12.942  22.755   4.486  1.00 28.25     0.096 N 
HETATM    2  C1  MK1 B 902      12.398  23.692   5.506  1.00 30.30     0.307 C 
HETATM    3  C2  MK1 B 902      13.278  24.268   6.597  1.00 27.27     0.200 C 
HETATM    4  N3  MK1 B 902      13.783  23.021   7.273  1.00 28.91    -0.395 N 
HETATM    5  C8  MK1 B 902      14.172  21.859   6.436  1.00 26.24     0.148 C 
HETATM    6  C9  MK1 B 902      13.389  21.620   5.161  1.00 27.47     0.292 C 
ENDROOT
BRANCH   1   7
HETATM    7  C31 MK1 B 902      12.107  22.482   3.310  1.00 36.25     0.312 C 
BRANCH   7   8
HETATM    8  C32 MK1 B 902      10.720  23.116   3.152  1.00 42.75    -0.013 A 
HETATM    9  C36 MK1 B 902       9.633  22.396   3.602  1.00 44.71     0.012 A 
HETATM   10  C35 MK1 B 902       8.369  22.957   3.443  1.00 49.34     0.020 A 
HETATM   11  C34 MK1 B 902       8.233  24.211   2.840  1.00 50.60     0.116 A 
HETATM   12  N5  MK1 B 902       9.276  25.002   2.359  1.00 51.38    -0.273 NA
HETATM   13  C33 MK1 B 902      10.514  24.368   2.557  1.00 47.41     0.125 A 
ENDBRANCH   7   8
ENDBRANCH   1   7
BRANCH   3  14
HETATM   14  C3  MK1 B 902      12.424  25.121   7.495  1.00 28.85     0.242 C 
HETATM   15  O1  MK1 B 902      12.936  25.791   8.382  1.00 29.59    -0.271 OA
HETATM   16  N2  MK1 B 902      11.123  25.094   7.284  1.00 22.29    -0.351 N 
HETATM   17  H2  MK1 B 902      10.819  24.443   6.559  1.00  0.00     0.163 HD
BRANCH  16  18
HETATM   18  C4  MK1 B 902      10.069  25.829   7.908  1.00 23.47     0.022 C 
HETATM   19  C7  MK1 B 902      10.543  26.950   8.726  1.00 22.75     0.037 C 
HETATM   20  C5  MK1 B 902       9.391  24.878   8.911  1.00 27.66     0.037 C 
HETATM   21  C6  MK1 B 902       9.139  26.326   7.009  1.00 21.71     0.037 C 
ENDBRANCH  16  18
ENDBRANCH   3  14
BRANCH   4  22
HETATM   22  C10 MK1 B 902      14.750  23.182   8.340  1.00 20.86     0.149 C 
BRANCH  22  23
HETATM   23  C11 MK1 B 902      16.173  22.768   7.962  1.00 21.68     0.136 C 
BRANCH  23  24
HETATM   24  O2  MK1 B 902      16.431  23.899   7.184  1.00 15.87    -0.394 OA
HETATM   25  H2  MK1 B 902      17.305  24.207   7.395  1.00  0.00     0.210 HD
ENDBRANCH  23  24
BRANCH  23  26
HETATM   26  C12 MK1 B 902      17.325  22.612   8.972  1.00 21.49     0.047 C 
BRANCH  26  27
HETATM   27  C13 MK1 B 902      17.887  21.224   9.308  1.00 26.89     0.084 C 
BRANCH  27  28
HETATM   28  C21 MK1 B 902      18.574  20.579   8.110  1.00 29.35     0.222 C 
HETATM   29  N4  MK1 B 902      17.834  19.708   7.429  1.00 31.19    -0.350 N 
HETATM   30  H4  MK1 B 902      16.980  19.343   7.851  1.00  0.00     0.163 HD
HETATM   31  O3  MK1 B 902      19.704  20.949   7.756  1.00 32.66    -0.273 OA
BRANCH  29  32
HETATM   32  C22 MK1 B 902      18.212  19.265   6.098  1.00 29.22     0.147 C 
HETATM   33  C30 MK1 B 902      18.741  17.816   5.926  1.00 31.86    -0.027 A 
HETATM   34  C29 MK1 B 902      19.532  17.016   6.688  1.00 27.70     0.010 A 
HETATM   35  C25 MK1 B 902      18.237  17.191   4.594  1.00 31.29    -0.047 A 
HETATM   36  C28 MK1 B 902      19.857  15.725   6.295  1.00 29.01     0.001 A 
HETATM   37  C27 MK1 B 902      19.384  15.167   5.098  1.00 28.00     0.001 A 
HETATM   38  C26 MK1 B 902      18.566  15.905   4.236  1.00 32.00     0.008 A 
HETATM   39  C24 MK1 B 902      17.395  18.315   4.041  1.00 32.05     0.073 C 
HETATM   40  C23 MK1 B 902      17.041  19.301   5.131  1.00 28.82     0.149 C 
BRANCH  40  41
HETATM   41  O4  MK1 B 902      15.832  18.998   5.811  1.00 28.32    -0.393 OA
HETATM   42  H4  MK1 B 902      15.534  18.125   5.580  1.00  0.00     0.210 HD
ENDBRANCH  40  41
ENDBRANCH  29  32
ENDBRANCH  27  28
BRANCH  27  43
HETATM   43  C14 MK1 B 902      16.803  20.267   9.834  1.00 28.67     0.052 C 
BRANCH  43  44
HETATM   44  C15 MK1 B 902      17.363  19.185  10.682  1.00 26.89    -0.057 A 
HETATM   45  C16 MK1 B 902      18.546  19.334  11.408  1.00 29.22     0.007 A 
HETATM   46  C17 MK1 B 902      19.052  18.283  12.158  1.00 29.22     0.001 A 
HETATM   47  C18 MK1 B 902      18.357  17.072  12.173  1.00 30.97     0.000 A 
HETATM   48  C19 MK1 B 902      17.166  16.920  11.452  1.00 29.25     0.001 A 
HETATM   49  C20 MK1 B 902      16.669  17.987  10.703  1.00 29.96     0.007 A 
ENDBRANCH  43  44
ENDBRANCH  27  43
ENDBRANCH  26  27
ENDBRANCH  23  26
ENDBRANCH  22  23
ENDBRANCH   4  22
TORSDOF 14
ENDMDL
MODEL 14
REMARK VINA RESULT:      -8.7      2.188     11.007
REMARK  14 active torsions:
REMARK  status: ('A' for Active; 'I' for Inactive)
REMARK    1  A    between atoms: N1_1  and  C31_43 
REMARK    2  A    between atoms: C2_3  and  C3_4 
REMARK       I    between atoms: C3_4  and  N2_6 
REMARK    3  A    between atoms: N2_6  and  C4_8 
REMARK    4  A    between atoms: N3_12  and  C10_15 
REMARK    5  A    between atoms: C10_15  and  C11_16 
REMARK    6  A    between atoms: C11_16  and  O2_17 
REMARK    7  A    between atoms: C11_16  and  C12_19 
REMARK    8  A    between atoms: C12_19  and  C13_20 
REMARK    9  A    between atoms: C13_20  and  C21_28 
REMARK   10  A    between atoms: C13_20  and  C14_21 
REMARK   11  A    between atoms: C14_21  and  C15_22 
REMARK       I    between atoms: C21_28  and  N4_30 
REMARK   12  A    between atoms: N4_30  and  C22_32 
REMARK   13  A    between atoms: C23_33  and  O4_34 
REMARK   14  A    between atoms: C31_43  and  C32_44 
ROOT
HETATM    1  N1  MK1 B 902      17.582  20.901   8.249  1.00 28.25     0.096 N 
HETATM    2  C1  MK1 B 902      17.285  20.037   7.075  1.00 30.30     0.307 C 
HETATM    3  C2  MK1 B 902      16.444  20.540   5.918  1.00 27.27     0.200 C 
HETATM    4  N3  MK1 B 902      15.161  20.910   6.613  1.00 28.91    -0.395 N 
HETATM    5  C8  MK1 B 902      15.227  21.588   7.931  1.00 26.24     0.148 C 
HETATM    6  C9  MK1 B 902      16.366  21.209   8.857  1.00 27.47     0.292 C 
ENDROOT
BRANCH   1   7
HETATM    7  C31 MK1 B 902      18.632  20.447   9.169  1.00 36.25     0.312 C 
BRANCH   7   8
HETATM    8  C32 MK1 B 902      18.533  19.097   9.889  1.00 42.75    -0.013 A 
HETATM    9  C36 MK1 B 902      18.352  19.114  11.256  1.00 44.71     0.012 A 
HETATM   10  C35 MK1 B 902      18.281  17.891  11.919  1.00 49.34     0.020 A 
HETATM   11  C34 MK1 B 902      18.395  16.699  11.197  1.00 50.60     0.116 A 
HETATM   12  N5  MK1 B 902      18.579  16.594   9.819  1.00 51.38    -0.273 NA
HETATM   13  C33 MK1 B 902      18.639  17.866   9.226  1.00 47.41     0.125 A 
ENDBRANCH   7   8
ENDBRANCH   1   7
BRANCH   3  14
HETATM   14  C3  MK1 B 902      16.278  19.419   4.930  1.00 28.85     0.242 C 
HETATM   15  O1  MK1 B 902      16.296  18.254   5.307  1.00 29.59    -0.271 OA
HETATM   16  N2  MK1 B 902      16.129  19.755   3.663  1.00 22.29    -0.351 N 
HETATM   17  H2  MK1 B 902      16.200  20.755   3.474  1.00  0.00     0.163 HD
BRANCH  16  18
HETATM   18  C4  MK1 B 902      15.885  18.943   2.514  1.00 23.47     0.022 C 
HETATM   19  C7  MK1 B 902      15.262  19.672   1.404  1.00 22.75     0.037 C 
HETATM   20  C5  MK1 B 902      14.838  17.890   2.921  1.00 27.66     0.037 C 
HETATM   21  C6  MK1 B 902      17.026  18.326   2.025  1.00 21.71     0.037 C 
ENDBRANCH  16  18
ENDBRANCH   3  14
BRANCH   4  22
HETATM   22  C10 MK1 B 902      14.121  21.528   5.815  1.00 20.86     0.149 C 
BRANCH  22  23
HETATM   23  C11 MK1 B 902      14.550  22.821   5.120  1.00 21.68     0.136 C 
BRANCH  23  24
HETATM   24  O2  MK1 B 902      14.166  22.412   3.842  1.00 15.87    -0.394 OA
HETATM   25  H2  MK1 B 902      13.453  21.791   3.934  1.00  0.00     0.210 HD
ENDBRANCH  23  24
BRANCH  23  26
HETATM   26  C12 MK1 B 902      13.916  24.198   5.389  1.00 21.49     0.047 C 
BRANCH  26  27
HETATM   27  C13 MK1 B 902      12.408  24.415   5.195  1.00 26.89     0.084 C 
BRANCH  27  28
HETATM   28  C21 MK1 B 902      11.854  25.468   6.148  1.00 29.35     0.222 C 
HETATM   29  N4  MK1 B 902      10.637  25.919   5.853  1.00 31.19    -0.350 N 
HETATM   30  H4  MK1 B 902      10.251  25.740   4.926  1.00  0.00     0.163 HD
HETATM   31  O3  MK1 B 902      12.471  25.775   7.178  1.00 32.66    -0.273 OA
BRANCH  29  32
HETATM   32  C22 MK1 B 902       9.845  26.660   6.820  1.00 29.22     0.147 C 
HETATM   33  C30 MK1 B 902       8.374  26.998   6.464  1.00 31.86    -0.027 A 
HETATM   34  C29 MK1 B 902       7.753  27.355   5.310  1.00 27.70     0.010 A 
HETATM   35  C25 MK1 B 902       7.457  26.893   7.716  1.00 31.29    -0.047 A 
HETATM   36  C28 MK1 B 902       6.388  27.603   5.262  1.00 29.01     0.001 A 
HETATM   37  C27 MK1 B 902       5.568  27.492   6.395  1.00 28.00     0.001 A 
HETATM   38  C26 MK1 B 902       6.106  27.134   7.637  1.00 32.00     0.008 A 
HETATM   39  C24 MK1 B 902       8.447  26.465   8.771  1.00 32.05     0.073 C 
HETATM   40  C23 MK1 B 902       9.698  25.908   8.132  1.00 28.82     0.149 C 
BRANCH  40  41
HETATM   41  O4  MK1 B 902       9.650  24.509   7.894  1.00 28.32    -0.393 OA
HETATM   42  H4  MK1 B 902       9.988  24.310   7.028  1.00  0.00     0.210 HD
ENDBRANCH  40  41
ENDBRANCH  29  32
ENDBRANCH  27  28
BRANCH  27  43
HETATM   43  C14 MK1 B 902      11.605  23.115   5.369  1.00 28.67     0.052 C 
BRANCH  43  44
HETATM   44  C15 MK1 B 902      10.522  22.977   4.363  1.00 26.89    -0.057 A 
HETATM   45  C16 MK1 B 902       9.239  23.491   4.563  1.00 29.22     0.007 A 
HETATM   46  C17 MK1 B 902       8.248  23.307   3.611  1.00 29.22     0.001 A 
HETATM   47  C18 MK1 B 902       8.555  22.596   2.449  1.00 30.97     0.000 A 
HETATM   48  C19 MK1 B 902       9.843  22.086   2.240  1.00 29.25     0.001 A 
HETATM   49  C20 MK1 B 902      10.829  22.280   3.207  1.00 29.96     0.007 A 
ENDBRANCH  43  44
ENDBRANCH  27  43
ENDBRANCH  26  27
ENDBRANCH  23  26
ENDBRANCH  22  23
ENDBRANCH   4  22
TORSDOF 14
ENDMDL
MODEL 15
REMARK VINA RESULT:      -8.6      3.249     10.950
REMARK  14 active torsions:
REMARK  status: ('A' for Active; 'I' for Inactive)
REMARK    1  A    between atoms: N1_1  and  C31_43 
REMARK    2  A    between atoms: C2_3  and  C3_4 
REMARK       I    between atoms: C3_4  and  N2_6 
REMARK    3  A    between atoms: N2_6  and  C4_8 
REMARK    4  A    between atoms: N3_12  and  C10_15 
REMARK    5  A    between atoms: C10_15  and  C11_16 
REMARK    6  A    between atoms: C11_16  and  O2_17 
REMARK    7  A    between atoms: C11_16  and  C12_19 
REMARK    8  A    between atoms: C12_19  and  C13_20 
REMARK    9  A    between atoms: C13_20  and  C21_28 
REMARK   10  A    between atoms: C13_20  and  C14_21 
REMARK   11  A    between atoms: C14_21  and  C15_22 
REMARK       I    between atoms: C21_28  and  N4_30 
REMARK   12  A    between atoms: N4_30  and  C22_32 
REMARK   13  A    between atoms: C23_33  and  O4_34 
REMARK   14  A    between atoms: C31_43  and  C32_44 
ROOT
HETATM    1  N1  MK1 B 902      13.150  22.212   4.377  1.00 28.25     0.096 N 
HETATM    2  C1  MK1 B 902      12.945  23.298   5.373  1.00 30.30     0.307 C 
HETATM    3  C2  MK1 B 902      11.560  23.658   5.874  1.00 27.27     0.200 C 
HETATM    4  N3  MK1 B 902      10.853  24.007   4.592  1.00 28.91    -0.395 N 
HETATM    5  C8  MK1 B 902      11.097  23.173   3.388  1.00 26.24     0.148 C 
HETATM    6  C9  MK1 B 902      12.482  22.585   3.212  1.00 27.47     0.292 C 
ENDROOT
BRANCH   1   7
HETATM    7  C31 MK1 B 902      14.524  21.738   4.173  1.00 36.25     0.312 C 
BRANCH   7   8
HETATM    8  C32 MK1 B 902      14.831  20.252   3.950  1.00 42.75    -0.013 A 
HETATM    9  C36 MK1 B 902      14.983  19.819   2.650  1.00 44.71     0.012 A 
HETATM   10  C35 MK1 B 902      15.242  18.467   2.439  1.00 49.34     0.020 A 
HETATM   11  C34 MK1 B 902      15.337  17.597   3.530  1.00 50.60     0.116 A 
HETATM   12  N5  MK1 B 902      15.196  17.952   4.870  1.00 51.38    -0.273 NA
HETATM   13  C33 MK1 B 902      14.939  19.327   4.998  1.00 47.41     0.125 A 
ENDBRANCH   7   8
ENDBRANCH   1   7
BRANCH   3  14
HETATM   14  C3  MK1 B 902      11.685  24.825   6.815  1.00 28.85     0.242 C 
HETATM   15  O1  MK1 B 902      12.576  25.652   6.661  1.00 29.59    -0.271 OA
HETATM   16  N2  MK1 B 902      10.810  24.897   7.799  1.00 22.29    -0.351 N 
HETATM   17  H2  MK1 B 902      10.163  24.110   7.854  1.00  0.00     0.163 HD
BRANCH  16  18
HETATM   18  C4  MK1 B 902      10.622  25.899   8.799  1.00 23.47     0.022 C 
HETATM   19  C7  MK1 B 902      11.797  26.101   9.652  1.00 22.75     0.037 C 
HETATM   20  C5  MK1 B 902       9.533  25.380   9.755  1.00 27.66     0.037 C 
HETATM   21  C6  MK1 B 902      10.261  27.132   8.279  1.00 21.71     0.037 C 
ENDBRANCH  16  18
ENDBRANCH   3  14
BRANCH   4  22
HETATM   22  C10 MK1 B 902       9.442  24.325   4.670  1.00 20.86     0.149 C 
BRANCH  22  23
HETATM   23  C11 MK1 B 902       8.620  23.822   3.482  1.00 21.68     0.136 C 
BRANCH  23  24
HETATM   24  O2  MK1 B 902       7.970  22.813   4.195  1.00 15.87    -0.394 OA
HETATM   25  H2  MK1 B 902       8.561  22.505   4.872  1.00  0.00     0.210 HD
ENDBRANCH  23  24
BRANCH  23  26
HETATM   26  C12 MK1 B 902       7.549  24.658   2.756  1.00 21.49     0.047 C 
BRANCH  26  27
HETATM   27  C13 MK1 B 902       6.388  25.288   3.538  1.00 26.89     0.084 C 
BRANCH  27  28
HETATM   28  C21 MK1 B 902       5.050  25.091   2.835  1.00 29.35     0.222 C 
HETATM   29  N4  MK1 B 902       4.507  23.885   2.970  1.00 31.19    -0.350 N 
HETATM   30  H4  MK1 B 902       5.084  23.113   3.306  1.00  0.00     0.163 HD
HETATM   31  O3  MK1 B 902       4.482  26.045   2.282  1.00 32.66    -0.273 OA
BRANCH  29  32
HETATM   32  C22 MK1 B 902       3.111  23.638   2.651  1.00 29.22     0.147 C 
HETATM   33  C30 MK1 B 902       2.751  23.198   1.208  1.00 31.86    -0.027 A 
HETATM   34  C29 MK1 B 902       3.229  23.541  -0.018  1.00 27.70     0.010 A 
HETATM   35  C25 MK1 B 902       1.604  22.148   1.213  1.00 31.29    -0.047 A 
HETATM   36  C28 MK1 B 902       2.721  22.979  -1.181  1.00 29.01     0.001 A 
HETATM   37  C27 MK1 B 902       1.695  22.022  -1.163  1.00 28.00     0.001 A 
HETATM   38  C26 MK1 B 902       1.128  21.601   0.044  1.00 32.00     0.008 A 
HETATM   39  C24 MK1 B 902       1.351  21.996   2.692  1.00 32.05     0.073 C 
HETATM   40  C23 MK1 B 902       2.525  22.515   3.490  1.00 28.82     0.149 C 
BRANCH  40  41
HETATM   41  O4  MK1 B 902       3.516  21.535   3.761  1.00 28.32    -0.393 OA
HETATM   42  H4  MK1 B 902       4.189  21.895   4.327  1.00  0.00     0.210 HD
ENDBRANCH  40  41
ENDBRANCH  29  32
ENDBRANCH  27  28
BRANCH  27  43
HETATM   43  C14 MK1 B 902       6.602  26.791   3.789  1.00 28.67     0.052 C 
BRANCH  43  44
HETATM   44  C15 MK1 B 902       6.199  27.201   5.158  1.00 26.89    -0.057 A 
HETATM   45  C16 MK1 B 902       7.035  27.050   6.266  1.00 29.22     0.007 A 
HETATM   46  C17 MK1 B 902       6.603  27.413   7.533  1.00 29.22     0.001 A 
HETATM   47  C18 MK1 B 902       5.315  27.931   7.681  1.00 30.97     0.000 A 
HETATM   48  C19 MK1 B 902       4.475  28.092   6.572  1.00 29.25     0.001 A 
HETATM   49  C20 MK1 B 902       4.925  27.723   5.304  1.00 29.96     0.007 A 
ENDBRANCH  43  44
ENDBRANCH  27  43
ENDBRANCH  26  27
ENDBRANCH  23  26
ENDBRANCH  22  23
ENDBRANCH   4  22
TORSDOF 14
ENDMDL
